C:\Mis documentos\Gara\Polímeros (Tg)\Base de datos polímeros\001 trimer  poly(ethylene).hin
 OpenBabel04231221193D

 20 19  0  0  0  0  0  0  0  0999 V2000
    0.3477   -2.4427    0.0000 C   0  0  0  0  0
    0.3262   -0.9360    0.0000 C   0  0  0  0  0
   -1.0899   -0.4004    0.0000 C   0  0  0  0  0
   -1.1072    1.1130    0.0000 C   0  0  0  0  0
   -2.5233    1.6486    0.0000 C   0  0  0  0  0
   -2.5448    3.1553    0.0000 C   0  0  0  0  0
    1.4000   -2.8164    0.0000 H   0  0  0  0  0
   -0.1692   -2.8445    0.9049 H   0  0  0  0  0
   -0.1692   -2.8445   -0.9049 H   0  0  0  0  0
    0.8710   -0.5513    0.9025 H   0  0  0  0  0
    0.8710   -0.5513   -0.9025 H   0  0  0  0  0
   -1.6357   -0.7830    0.9025 H   0  0  0  0  0
   -1.6357   -0.7830   -0.9025 H   0  0  0  0  0
   -0.5615    1.4956    0.9025 H   0  0  0  0  0
   -0.5615    1.4956   -0.9025 H   0  0  0  0  0
   -3.0681    1.2639    0.9025 H   0  0  0  0  0
   -3.0681    1.2639   -0.9025 H   0  0  0  0  0
   -3.5971    3.5289    0.0000 H   0  0  0  0  0
   -2.0279    3.5571    0.9049 H   0  0  0  0  0
   -2.0279    3.5571   -0.9049 H   0  0  0  0  0
  1  2  1  0  0  0
  1  7  1  0  0  0
  1  8  1  0  0  0
  1  9  1  0  0  0
  2  3  1  0  0  0
  2 10  1  0  0  0
  2 11  1  0  0  0
  3  4  1  0  0  0
  3 12  1  0  0  0
  3 13  1  0  0  0
  4  5  1  0  0  0
  4 14  1  0  0  0
  4 15  1  0  0  0
  5  6  1  0  0  0
  5 16  1  0  0  0
  5 17  1  0  0  0
  6 18  1  0  0  0
  6 19  1  0  0  0
  6 20  1  0  0  0
M  END
