C:\Mis documentos\Gara\Polímeros (Tg)\Base de datos polímeros\002 trimer poly(ethylethylene).hin
 OpenBabel04231221213D

 38 37  0  0  0  0  0  0  0  0999 V2000
   -2.7922   -1.3221   -0.4308 C   0  0  0  0  0
   -1.5582   -0.8757    0.3265 C   0  0  0  0  0
   -2.9368   -2.8291   -0.4072 C   0  0  0  0  0
   -4.1554   -3.2798   -1.1703 C   0  0  0  0  0
   -1.4251    0.6455    0.3560 C   0  0  0  0  0
   -0.0180    1.0685   -0.0530 C   0  0  0  0  0
   -1.7619    1.1987    1.7359 C   0  0  0  0  0
   -3.2201    1.0423    2.0820 C   0  0  0  0  0
    0.0564    2.5074   -0.5493 C   0  0  0  0  0
   -0.4108    2.6045   -1.9883 C   0  0  0  0  0
    1.4783    3.0445   -0.4334 C   0  0  0  0  0
    1.8268    3.4647    0.9711 C   0  0  0  0  0
   -3.7035   -0.8490    0.0228 H   0  0  0  0  0
   -2.7305   -0.9688   -1.4940 H   0  0  0  0  0
   -1.6034   -1.2764    1.3739 H   0  0  0  0  0
   -0.6546   -1.3374   -0.1532 H   0  0  0  0  0
   -2.0194   -3.2995   -0.8504 H   0  0  0  0  0
   -3.0065   -3.1812    0.6560 H   0  0  0  0  0
   -4.2442   -4.3926   -1.1386 H   0  0  0  0  0
   -5.0823   -2.8393   -0.7293 H   0  0  0  0  0
   -4.0916   -2.9615   -2.2391 H   0  0  0  0  0
   -2.1529    1.0870   -0.3829 H   0  0  0  0  0
    0.6688    0.9375    0.8245 H   0  0  0  0  0
    0.3562    0.3944   -0.8691 H   0  0  0  0  0
   -1.1334    0.6809    2.5082 H   0  0  0  0  0
   -1.4914    2.2878    1.7707 H   0  0  0  0  0
   -3.4326    1.5059    3.0757 H   0  0  0  0  0
   -3.8644    1.5380    1.3160 H   0  0  0  0  0
   -3.5021   -0.0377    2.1295 H   0  0  0  0  0
   -0.6177    3.1498    0.0845 H   0  0  0  0  0
   -1.4328    2.1694   -2.1000 H   0  0  0  0  0
   -0.4441    3.6720   -2.3144 H   0  0  0  0  0
    0.2845    2.0506   -2.6643 H   0  0  0  0  0
    2.1999    2.2609   -0.7852 H   0  0  0  0  0
    1.5920    3.9284   -1.1166 H   0  0  0  0  0
    2.8747    3.8495    1.0091 H   0  0  0  0  0
    1.1417    4.2741    1.3225 H   0  0  0  0  0
    1.7428    2.6054    1.6796 H   0  0  0  0  0
  1  2  1  0  0  0
  1  3  1  0  0  0
  1 13  1  0  0  0
  1 14  1  0  0  0
  2  5  1  0  0  0
  2 15  1  0  0  0
  2 16  1  0  0  0
  3  4  1  0  0  0
  3 17  1  0  0  0
  3 18  1  0  0  0
  4 19  1  0  0  0
  4 20  1  0  0  0
  4 21  1  0  0  0
  5  6  1  0  0  0
  5  7  1  0  0  0
  5 22  1  0  0  0
  6  9  1  0  0  0
  6 23  1  0  0  0
  6 24  1  0  0  0
  7  8  1  0  0  0
  7 25  1  0  0  0
  7 26  1  0  0  0
  8 27  1  0  0  0
  8 28  1  0  0  0
  8 29  1  0  0  0
  9 10  1  0  0  0
  9 11  1  0  0  0
  9 30  1  0  0  0
 10 31  1  0  0  0
 10 32  1  0  0  0
 10 33  1  0  0  0
 11 12  1  0  0  0
 11 34  1  0  0  0
 11 35  1  0  0  0
 12 36  1  0  0  0
 12 37  1  0  0  0
 12 38  1  0  0  0
M  END
