C:\Mis documentos\Gara\Polímeros (Tg)\Base de datos polímeros\003 trimer poly(butylethylene).hin
 OpenBabel04231221213D

 56 55  0  0  0  0  0  0  0  0999 V2000
   -2.4704   -3.3770    0.3197 C   0  0  0  0  0
   -1.9358   -2.0023    0.6671 C   0  0  0  0  0
   -2.2339   -1.6557    2.1199 C   0  0  0  0  0
   -3.6689   -1.2170    2.3210 C   0  0  0  0  0
   -3.9395   -0.8733    3.7708 C   0  0  0  0  0
   -5.3642   -0.4281    3.9767 C   0  0  0  0  0
   -0.4366   -1.9466    0.3954 C   0  0  0  0  0
    0.0619   -0.5305    0.1291 C   0  0  0  0  0
    1.5789   -0.4948    0.2698 C   0  0  0  0  0
    2.1230    0.9176    0.2687 C   0  0  0  0  0
    3.6269    0.9264    0.4453 C   0  0  0  0  0
    4.1756    2.3298    0.4446 C   0  0  0  0  0
   -0.3842   -0.0418   -1.2465 C   0  0  0  0  0
   -1.0691    1.3075   -1.1745 C   0  0  0  0  0
   -1.4739    1.7929   -2.5500 C   0  0  0  0  0
   -2.1853    3.1267   -2.4741 C   0  0  0  0  0
   -2.5959    3.6120   -3.8481 C   0  0  0  0  0
   -3.3118    4.9359   -3.7761 C   0  0  0  0  0
   -2.3245   -3.5870   -0.7674 H   0  0  0  0  0
   -1.9386   -4.1646    0.9062 H   0  0  0  0  0
   -3.5613   -3.4420    0.5484 H   0  0  0  0  0
   -2.4480   -1.2441    0.0082 H   0  0  0  0  0
   -2.0167   -2.5453    2.7680 H   0  0  0  0  0
   -1.5507   -0.8298    2.4536 H   0  0  0  0  0
   -3.8830   -0.3224    1.6784 H   0  0  0  0  0
   -4.3663   -2.0327    1.9942 H   0  0  0  0  0
   -3.7278   -1.7690    4.4128 H   0  0  0  0  0
   -3.2395   -0.0599    4.0989 H   0  0  0  0  0
   -5.5425   -0.1805    5.0510 H   0  0  0  0  0
   -5.5865    0.4791    3.3642 H   0  0  0  0  0
   -6.0767   -1.2346    3.6777 H   0  0  0  0  0
   -0.1911   -2.5906   -0.4900 H   0  0  0  0  0
    0.1082   -2.3769    1.2770 H   0  0  0  0  0
   -0.3739    0.1478    0.9172 H   0  0  0  0  0
    1.8708   -0.9964    1.2311 H   0  0  0  0  0
    2.0462   -1.0814   -0.5641 H   0  0  0  0  0
    1.8553    1.4264   -0.6952 H   0  0  0  0  0
    1.6445    1.5065    1.0953 H   0  0  0  0  0
    3.8932    0.4184    1.4099 H   0  0  0  0  0
    4.1033    0.3350   -0.3808 H   0  0  0  0  0
    5.2845    2.3134    0.5754 H   0  0  0  0  0
    3.9417    2.8443   -0.5188 H   0  0  0  0  0
    3.7311    2.9274    1.2768 H   0  0  0  0  0
   -1.0911   -0.7823   -1.7076 H   0  0  0  0  0
    0.4998    0.0275   -1.9344 H   0  0  0  0  0
   -1.9786    1.2310   -0.5211 H   0  0  0  0  0
   -0.3796    2.0543   -0.6983 H   0  0  0  0  0
   -0.5635    1.8883   -3.1988 H   0  0  0  0  0
   -2.1459    1.0356   -3.0335 H   0  0  0  0  0
   -3.0940    3.0318   -1.8228 H   0  0  0  0  0
   -1.5127    3.8853   -1.9935 H   0  0  0  0  0
   -1.6855    3.7103   -4.4968 H   0  0  0  0  0
   -3.2627    2.8487   -4.3298 H   0  0  0  0  0
   -3.6047    5.2753   -4.7989 H   0  0  0  0  0
   -4.2359    4.8513   -3.1545 H   0  0  0  0  0
   -2.6544    5.7155   -3.3205 H   0  0  0  0  0
  1  2  1  0  0  0
  1 19  1  0  0  0
  1 20  1  0  0  0
  1 21  1  0  0  0
  2  3  1  0  0  0
  2  7  1  0  0  0
  2 22  1  0  0  0
  3  4  1  0  0  0
  3 23  1  0  0  0
  3 24  1  0  0  0
  4  5  1  0  0  0
  4 25  1  0  0  0
  4 26  1  0  0  0
  5  6  1  0  0  0
  5 27  1  0  0  0
  5 28  1  0  0  0
  6 29  1  0  0  0
  6 30  1  0  0  0
  6 31  1  0  0  0
  7  8  1  0  0  0
  7 32  1  0  0  0
  7 33  1  0  0  0
  8  9  1  0  0  0
  8 13  1  0  0  0
  8 34  1  0  0  0
  9 10  1  0  0  0
  9 35  1  0  0  0
  9 36  1  0  0  0
 10 11  1  0  0  0
 10 37  1  0  0  0
 10 38  1  0  0  0
 11 12  1  0  0  0
 11 39  1  0  0  0
 11 40  1  0  0  0
 12 41  1  0  0  0
 12 42  1  0  0  0
 12 43  1  0  0  0
 13 14  1  0  0  0
 13 44  1  0  0  0
 13 45  1  0  0  0
 14 15  1  0  0  0
 14 46  1  0  0  0
 14 47  1  0  0  0
 15 16  1  0  0  0
 15 48  1  0  0  0
 15 49  1  0  0  0
 16 17  1  0  0  0
 16 50  1  0  0  0
 16 51  1  0  0  0
 17 18  1  0  0  0
 17 52  1  0  0  0
 17 53  1  0  0  0
 18 54  1  0  0  0
 18 55  1  0  0  0
 18 56  1  0  0  0
M  END
