C:\Mis documentos\Gara\Polímeros (Tg)\Base de datos polímeros\004 trimer poly(cyclopentylethylene).hin
 OpenBabel04231221233D

 59 61  0  0  0  0  0  0  0  0999 V2000
   -2.4743    1.0850    1.0289 C   0  0  0  0  0
   -2.6217    2.0616   -0.1173 C   0  0  0  0  0
   -3.8134    0.5092    1.4495 C   0  0  0  0  0
   -3.7736   -0.0577    2.8707 C   0  0  0  0  0
   -4.2923   -0.6454    0.5699 C   0  0  0  0  0
   -5.1354   -1.5434    1.4660 C   0  0  0  0  0
   -4.7504   -1.2265    2.9068 C   0  0  0  0  0
   -0.4478    3.1898    0.5036 C   0  0  0  0  0
    0.3696    4.4245    0.1019 C   0  0  0  0  0
    1.6455    4.4017    0.9323 C   0  0  0  0  0
    1.7386    3.0280    1.5849 C   0  0  0  0  0
    0.5672    2.2017    1.0683 C   0  0  0  0  0
   -1.3457    2.7071   -0.6356 C   0  0  0  0  0
   -0.6011    2.0673   -1.8081 C   0  0  0  0  0
    0.4855   -0.2617   -1.5820 C   0  0  0  0  0
    1.0484   -1.2966   -2.5688 C   0  0  0  0  0
    1.5719   -2.4582   -1.7359 C   0  0  0  0  0
    1.0011   -2.2981   -0.3324 C   0  0  0  0  0
    0.0891   -1.0763   -0.3529 C   0  0  0  0  0
   -0.5843    0.6025   -2.2425 C   0  0  0  0  0
   -1.9373   -0.0586   -2.3258 C   0  0  0  0  0
   -1.7686    0.2606    0.7509 H   0  0  0  0  0
   -2.0277    1.6164    1.9126 H   0  0  0  0  0
   -3.1673    1.5770   -0.9677 H   0  0  0  0  0
   -3.2878    2.8974    0.2427 H   0  0  0  0  0
   -4.5851    1.3277    1.4149 H   0  0  0  0  0
   -4.0503    0.7259    3.6172 H   0  0  0  0  0
   -2.7399   -0.4092    3.1179 H   0  0  0  0  0
   -3.4170   -1.2214    0.1734 H   0  0  0  0  0
   -4.8769   -0.2696   -0.3042 H   0  0  0  0  0
   -4.9551   -2.6210    1.2299 H   0  0  0  0  0
   -6.2243   -1.3436    1.3027 H   0  0  0  0  0
   -4.2799   -2.1153    3.3960 H   0  0  0  0  0
   -5.6587   -0.9611    3.5034 H   0  0  0  0  0
   -1.1288    3.5016    1.3475 H   0  0  0  0  0
   -0.2166    5.3581    0.2859 H   0  0  0  0  0
    0.6169    4.3954   -0.9894 H   0  0  0  0  0
    1.6205    5.2031    1.7126 H   0  0  0  0  0
    2.5377    4.5958    0.2865 H   0  0  0  0  0
    1.6863    3.1233    2.6986 H   0  0  0  0  0
    2.7101    2.5325    1.3389 H   0  0  0  0  0
    0.1187    1.5837    1.8849 H   0  0  0  0  0
    0.9171    1.5020    0.2700 H   0  0  0  0  0
   -1.7266    3.6821   -1.0926 H   0  0  0  0  0
   -0.9989    2.6076   -2.7187 H   0  0  0  0  0
    0.4785    2.3757   -1.7098 H   0  0  0  0  0
    1.3421    0.4112   -1.2923 H   0  0  0  0  0
    1.8575   -0.8457   -3.1933 H   0  0  0  0  0
    0.2439   -1.6510   -3.2619 H   0  0  0  0  0
    2.6903   -2.4467   -1.7057 H   0  0  0  0  0
    1.2620   -3.4349   -2.1836 H   0  0  0  0  0
    1.8271   -2.1549    0.4087 H   0  0  0  0  0
    0.4320   -3.2096   -0.0242 H   0  0  0  0  0
    0.2056   -0.4766    0.5838 H   0  0  0  0  0
   -0.9774   -1.4093   -0.4188 H   0  0  0  0  0
   -0.2311    0.6820   -3.3252 H   0  0  0  0  0
   -2.6409    0.5842   -2.9097 H   0  0  0  0  0
   -1.8477   -1.0442   -2.8466 H   0  0  0  0  0
   -2.3798   -0.2435   -1.3180 H   0  0  0  0  0
  1  2  1  0  0  0
  1  3  1  0  0  0
  1 22  1  0  0  0
  1 23  1  0  0  0
  2 13  1  0  0  0
  2 24  1  0  0  0
  2 25  1  0  0  0
  3  4  1  0  0  0
  3  5  1  0  0  0
  3 26  1  0  0  0
  4  7  1  0  0  0
  4 27  1  0  0  0
  4 28  1  0  0  0
  5  6  1  0  0  0
  5 29  1  0  0  0
  5 30  1  0  0  0
  6  7  1  0  0  0
  6 31  1  0  0  0
  6 32  1  0  0  0
  7 33  1  0  0  0
  7 34  1  0  0  0
  8  9  1  0  0  0
  8 12  1  0  0  0
  8 13  1  0  0  0
  8 35  1  0  0  0
  9 10  1  0  0  0
  9 36  1  0  0  0
  9 37  1  0  0  0
 10 11  1  0  0  0
 10 38  1  0  0  0
 10 39  1  0  0  0
 11 12  1  0  0  0
 11 40  1  0  0  0
 11 41  1  0  0  0
 12 42  1  0  0  0
 12 43  1  0  0  0
 13 14  1  0  0  0
 13 44  1  0  0  0
 14 20  1  0  0  0
 14 45  1  0  0  0
 14 46  1  0  0  0
 15 16  1  0  0  0
 15 19  1  0  0  0
 15 20  1  0  0  0
 15 47  1  0  0  0
 16 17  1  0  0  0
 16 48  1  0  0  0
 16 49  1  0  0  0
 17 18  1  0  0  0
 17 50  1  0  0  0
 17 51  1  0  0  0
 18 19  1  0  0  0
 18 52  1  0  0  0
 18 53  1  0  0  0
 19 54  1  0  0  0
 19 55  1  0  0  0
 20 21  1  0  0  0
 20 56  1  0  0  0
 21 57  1  0  0  0
 21 58  1  0  0  0
 21 59  1  0  0  0
M  END
