C:\Mis documentos\Gara\Polímeros (Tg)\Base de datos polímeros\005 trimer poly(cyclohexylethylene).hin
 OpenBabel04231221243D

 68 70  0  0  0  0  0  0  0  0999 V2000
   -2.0919   -0.8028    1.0042 C   0  0  0  0  0
   -2.2250   -0.2410   -0.3964 C   0  0  0  0  0
   -3.4221   -1.3082    1.5462 C   0  0  0  0  0
   -3.2025   -2.0208    2.8746 C   0  0  0  0  0
   -4.4189   -0.1710    1.7176 C   0  0  0  0  0
   -5.7261   -0.6653    2.3015 C   0  0  0  0  0
   -5.5067   -1.3869    3.6151 C   0  0  0  0  0
   -4.5094   -2.5162    3.4578 C   0  0  0  0  0
   -0.9603   -0.1903   -1.2543 C   0  0  0  0  0
    0.3031    0.1281   -0.4742 C   0  0  0  0  0
   -0.8649   -1.4194   -2.1723 C   0  0  0  0  0
    0.1395   -1.2396   -3.3068 C   0  0  0  0  0
    1.5403   -1.7664   -3.0756 C   0  0  0  0  0
    1.5619   -3.1308   -2.4243 C   0  0  0  0  0
    0.7130   -3.1553   -1.1723 C   0  0  0  0  0
   -0.7136   -2.7657   -1.4862 C   0  0  0  0  0
    0.7292    1.5987   -0.4751 C   0  0  0  0  0
    1.1155    2.0474   -1.8668 C   0  0  0  0  0
   -0.2789    2.4954    0.2513 C   0  0  0  0  0
    0.4000    3.4131    1.2638 C   0  0  0  0  0
    1.0175    4.6418    0.6337 C   0  0  0  0  0
   -0.0260    5.4378   -0.1205 C   0  0  0  0  0
   -0.6891    4.5880   -1.1827 C   0  0  0  0  0
   -1.2367    3.2907   -0.6248 C   0  0  0  0  0
   -1.3532   -1.6468    1.0247 H   0  0  0  0  0
   -1.6985   -0.0103    1.6959 H   0  0  0  0  0
   -3.0067   -0.8285   -0.9505 H   0  0  0  0  0
   -2.6167    0.8110   -0.3089 H   0  0  0  0  0
   -3.8518   -2.0501    0.8151 H   0  0  0  0  0
   -2.7116   -1.3166    3.5965 H   0  0  0  0  0
   -2.5076   -2.8874    2.7229 H   0  0  0  0  0
   -4.6112    0.3084    0.7223 H   0  0  0  0  0
   -3.9786    0.6112    2.3901 H   0  0  0  0  0
   -6.2218   -1.3597    1.5730 H   0  0  0  0  0
   -6.4162    0.2037    2.4609 H   0  0  0  0  0
   -6.4818   -1.7949    3.9882 H   0  0  0  0  0
   -5.1298   -0.6601    4.3819 H   0  0  0  0  0
   -4.9421   -3.3053    2.7880 H   0  0  0  0  0
   -4.3176   -2.9899    4.4557 H   0  0  0  0  0
   -1.1270    0.6723   -1.9716 H   0  0  0  0  0
    0.2062   -0.2052    0.5921 H   0  0  0  0  0
    1.1557   -0.4589   -0.9082 H   0  0  0  0  0
   -1.8800   -1.4564   -2.6817 H   0  0  0  0  0
    0.2104   -0.1478   -3.5628 H   0  0  0  0  0
   -0.2785   -1.7654   -4.2088 H   0  0  0  0  0
    2.1302   -1.0440   -2.4519 H   0  0  0  0  0
    2.0643   -1.8264   -4.0679 H   0  0  0  0  0
    2.6183   -3.4085   -2.1714 H   0  0  0  0  0
    1.1777   -3.8972   -3.1483 H   0  0  0  0  0
    1.1421   -2.4626   -0.4021 H   0  0  0  0  0
    0.7251   -4.1875   -0.7325 H   0  0  0  0  0
   -1.3277   -2.7827   -0.5494 H   0  0  0  0  0
   -1.1444   -3.5480   -2.1709 H   0  0  0  0  0
    1.6837    1.6234    0.1357 H   0  0  0  0  0
    1.7930    1.2895   -2.3344 H   0  0  0  0  0
    0.2267    2.1685   -2.5311 H   0  0  0  0  0
    1.6601    3.0219   -1.8227 H   0  0  0  0  0
   -0.9308    1.7948    0.8589 H   0  0  0  0  0
    1.1853    2.8443    1.8267 H   0  0  0  0  0
   -0.3714    3.7407    2.0120 H   0  0  0  0  0
    1.8384    4.3348   -0.0665 H   0  0  0  0  0
    1.4764    5.2817    1.4319 H   0  0  0  0  0
    0.4514    6.3324   -0.5984 H   0  0  0  0  0
   -0.8008    5.8139    0.5984 H   0  0  0  0  0
    0.0489    4.3748   -1.9998 H   0  0  0  0  0
   -1.5326    5.1656   -1.6466 H   0  0  0  0  0
   -1.5933    2.6480   -1.4721 H   0  0  0  0  0
   -2.1383    3.5354    0.0020 H   0  0  0  0  0
  1  2  1  0  0  0
  1  3  1  0  0  0
  1 25  1  0  0  0
  1 26  1  0  0  0
  2  9  1  0  0  0
  2 27  1  0  0  0
  2 28  1  0  0  0
  3  4  1  0  0  0
  3  5  1  0  0  0
  3 29  1  0  0  0
  4  8  1  0  0  0
  4 30  1  0  0  0
  4 31  1  0  0  0
  5  6  1  0  0  0
  5 32  1  0  0  0
  5 33  1  0  0  0
  6  7  1  0  0  0
  6 34  1  0  0  0
  6 35  1  0  0  0
  7  8  1  0  0  0
  7 36  1  0  0  0
  7 37  1  0  0  0
  8 38  1  0  0  0
  8 39  1  0  0  0
  9 10  1  0  0  0
  9 11  1  0  0  0
  9 40  1  0  0  0
 10 17  1  0  0  0
 10 41  1  0  0  0
 10 42  1  0  0  0
 11 12  1  0  0  0
 11 16  1  0  0  0
 11 43  1  0  0  0
 12 13  1  0  0  0
 12 44  1  0  0  0
 12 45  1  0  0  0
 13 14  1  0  0  0
 13 46  1  0  0  0
 13 47  1  0  0  0
 14 15  1  0  0  0
 14 48  1  0  0  0
 14 49  1  0  0  0
 15 16  1  0  0  0
 15 50  1  0  0  0
 15 51  1  0  0  0
 16 52  1  0  0  0
 16 53  1  0  0  0
 17 18  1  0  0  0
 17 19  1  0  0  0
 17 54  1  0  0  0
 18 55  1  0  0  0
 18 56  1  0  0  0
 18 57  1  0  0  0
 19 20  1  0  0  0
 19 24  1  0  0  0
 19 58  1  0  0  0
 20 21  1  0  0  0
 20 59  1  0  0  0
 20 60  1  0  0  0
 21 22  1  0  0  0
 21 61  1  0  0  0
 21 62  1  0  0  0
 22 23  1  0  0  0
 22 63  1  0  0  0
 22 64  1  0  0  0
 23 24  1  0  0  0
 23 65  1  0  0  0
 23 66  1  0  0  0
 24 67  1  0  0  0
 24 68  1  0  0  0
M  END
