C:\Mis documentos\Gara\Polímeros (Tg)\Base de datos polímeros\006 trimer poly(acrylic acid).hin
 OpenBabel04231221243D

 29 28  0  0  0  0  0  0  0  0999 V2000
   -2.4499   -1.6721   -1.0419 C   0  0  0  0  0
   -1.1258   -1.0698   -0.6173 C   0  0  0  0  0
   -2.3696   -3.1625   -1.1197 C   0  0  0  0  0
   -2.5399   -3.8950   -2.0977 O   0  0  0  0  0
   -2.0837   -3.7762    0.0635 O   0  0  0  0  0
   -1.2529    0.4343   -0.3920 C   0  0  0  0  0
    0.1265    1.0737   -0.2883 C   0  0  0  0  0
   -2.0476    0.6763    0.8650 C   0  0  0  0  0
   -3.3812    0.8531    0.6450 O   0  0  0  0  0
   -1.6661    0.7189    2.0368 O   0  0  0  0  0
    0.1315    2.5597   -0.6290 C   0  0  0  0  0
    1.4732    2.9723   -1.2040 C   0  0  0  0  0
   -0.1724    3.3956    0.5860 C   0  0  0  0  0
   -1.1393    4.1383    0.7771 O   0  0  0  0  0
    0.7542    3.3202    1.5806 O   0  0  0  0  0
   -3.2529   -1.3935   -0.3049 H   0  0  0  0  0
   -2.7537   -1.2838   -2.0505 H   0  0  0  0  0
   -0.7653   -1.5652    0.3236 H   0  0  0  0  0
   -0.3602   -1.2570   -1.4160 H   0  0  0  0  0
   -2.0626   -4.7391   -0.0646 H   0  0  0  0  0
   -1.8193    0.8844   -1.2572 H   0  0  0  0  0
    0.5372    0.9212    0.7466 H   0  0  0  0  0
    0.8148    0.5485   -1.0046 H   0  0  0  0  0
   -3.8317    1.0322    1.4873 H   0  0  0  0  0
   -0.6747    2.7822   -1.3859 H   0  0  0  0  0
    1.6744    2.4088   -2.1465 H   0  0  0  0  0
    1.4756    4.0649   -1.4344 H   0  0  0  0  0
    2.2898    2.7602   -0.4719 H   0  0  0  0  0
    0.4632    3.8567    2.3371 H   0  0  0  0  0
  1  2  1  0  0  0
  1  3  1  0  0  0
  1 16  1  0  0  0
  1 17  1  0  0  0
  2  6  1  0  0  0
  2 18  1  0  0  0
  2 19  1  0  0  0
  3  4  2  0  0  0
  3  5  1  0  0  0
  5 20  1  0  0  0
  6  7  1  0  0  0
  6  8  1  0  0  0
  6 21  1  0  0  0
  7 11  1  0  0  0
  7 22  1  0  0  0
  7 23  1  0  0  0
  8  9  1  0  0  0
  8 10  2  0  0  0
  9 24  1  0  0  0
 11 12  1  0  0  0
 11 13  1  0  0  0
 11 25  1  0  0  0
 12 26  1  0  0  0
 12 27  1  0  0  0
 12 28  1  0  0  0
 13 14  2  0  0  0
 13 15  1  0  0  0
 15 29  1  0  0  0
M  END
