C:\Mis documentos\Gara\Polímeros (Tg)\Base de datos polímeros\007 trimer poly(methyl acrylate).hin
 OpenBabel04231221253D

 38 37  0  0  0  0  0  0  0  0999 V2000
   -2.9201   -3.3368   -1.3697 C   0  0  0  0  0
   -2.9913   -1.9408   -0.7805 C   0  0  0  0  0
   -3.9613   -1.9321    0.3737 C   0  0  0  0  0
   -4.9941   -1.2686    0.4847 O   0  0  0  0  0
   -3.6278   -2.7872    1.3866 O   0  0  0  0  0
   -4.4874   -2.7948    2.5283 C   0  0  0  0  0
   -1.6085   -1.4678   -0.3469 C   0  0  0  0  0
   -1.4137    0.0378   -0.4814 C   0  0  0  0  0
   -1.9838    0.7560    0.7163 C   0  0  0  0  0
   -2.6871    1.8780    0.3743 O   0  0  0  0  0
   -3.3055    2.6005    1.4409 C   0  0  0  0  0
   -1.8784    0.4734    1.9107 O   0  0  0  0  0
    0.0708    0.3674   -0.5967 C   0  0  0  0  0
    0.2833    1.8271   -0.9389 C   0  0  0  0  0
    1.7387    2.1274   -1.1105 C   0  0  0  0  0
    2.0487    3.4258   -0.8092 O   0  0  0  0  0
    3.4139    3.8143   -0.9668 C   0  0  0  0  0
    2.6464    1.3846   -1.4893 O   0  0  0  0  0
   -2.2662   -3.3364   -2.2745 H   0  0  0  0  0
   -2.5032   -4.0526   -0.6204 H   0  0  0  0  0
   -3.9392   -3.6839   -1.6660 H   0  0  0  0  0
   -3.4106   -1.2380   -1.5570 H   0  0  0  0  0
   -4.0180   -3.5500    3.2054 H   0  0  0  0  0
   -4.5062   -1.7810    2.9954 H   0  0  0  0  0
   -5.5183   -3.0982    2.2258 H   0  0  0  0  0
   -0.8432   -1.9794   -0.9915 H   0  0  0  0  0
   -1.4144   -1.7802    0.7148 H   0  0  0  0  0
   -1.9430    0.4110   -1.4041 H   0  0  0  0  0
   -3.8201    3.4464    0.9223 H   0  0  0  0  0
   -4.0336    1.9420    1.9727 H   0  0  0  0  0
   -2.5271    2.9670    2.1524 H   0  0  0  0  0
    0.5339   -0.2700   -1.3967 H   0  0  0  0  0
    0.5860    0.1203    0.3690 H   0  0  0  0  0
   -0.2314    2.0847   -1.9041 H   0  0  0  0  0
   -0.1512    2.4874   -0.1407 H   0  0  0  0  0
    3.4184    4.8909   -0.6665 H   0  0  0  0  0
    4.0640    3.1993   -0.2991 H   0  0  0  0  0
    3.7263    3.6838   -2.0307 H   0  0  0  0  0
  1  2  1  0  0  0
  1 19  1  0  0  0
  1 20  1  0  0  0
  1 21  1  0  0  0
  2  3  1  0  0  0
  2  7  1  0  0  0
  2 22  1  0  0  0
  3  4  2  0  0  0
  3  5  1  0  0  0
  5  6  1  0  0  0
  6 23  1  0  0  0
  6 24  1  0  0  0
  6 25  1  0  0  0
  7  8  1  0  0  0
  7 26  1  0  0  0
  7 27  1  0  0  0
  8  9  1  0  0  0
  8 13  1  0  0  0
  8 28  1  0  0  0
  9 10  1  0  0  0
  9 12  2  0  0  0
 10 11  1  0  0  0
 11 29  1  0  0  0
 11 30  1  0  0  0
 11 31  1  0  0  0
 13 14  1  0  0  0
 13 32  1  0  0  0
 13 33  1  0  0  0
 14 15  1  0  0  0
 14 34  1  0  0  0
 14 35  1  0  0  0
 15 16  1  0  0  0
 15 18  2  0  0  0
 16 17  1  0  0  0
 17 36  1  0  0  0
 17 37  1  0  0  0
 17 38  1  0  0  0
M  END
