C:\Mis documentos\Gara\Polímeros (Tg)\Base de datos polímeros\008 trimer poly(ethyl acrylate).hin
 OpenBabel04231221263D

 47 46  0  0  0  0  0  0  0  0999 V2000
   -2.2541   -1.7078   -1.8292 C   0  0  0  0  0
   -1.0703   -0.8546   -1.4207 C   0  0  0  0  0
   -1.8946   -3.1616   -1.8254 C   0  0  0  0  0
   -1.7741   -3.9197   -2.7896 O   0  0  0  0  0
   -1.6971   -3.6660   -0.5710 O   0  0  0  0  0
   -1.3658   -5.0642   -0.4844 C   0  0  0  0  0
   -1.1940   -5.3671    0.9839 C   0  0  0  0  0
   -1.4655    0.6141   -1.2991 C   0  0  0  0  0
   -0.2213    1.4833   -1.1805 C   0  0  0  0  0
   -2.4010    0.7764   -0.1268 C   0  0  0  0  0
   -3.6305    0.8627   -0.1639 O   0  0  0  0  0
   -1.7819    0.7904    1.0887 O   0  0  0  0  0
   -2.6304    0.9536    2.2421 C   0  0  0  0  0
   -1.7046    1.0599    3.4292 C   0  0  0  0  0
   -0.4896    2.9598   -1.4505 C   0  0  0  0  0
    0.6100    3.5656   -2.3025 C   0  0  0  0  0
   -0.6110    3.7514   -0.1722 C   0  0  0  0  0
   -1.5309    4.5013    0.1601 O   0  0  0  0  0
    0.4505    3.6096    0.6761 O   0  0  0  0  0
    0.3775    4.3276    1.9219 C   0  0  0  0  0
    1.5320    3.8375    2.7610 C   0  0  0  0  0
   -3.1109   -1.5423   -1.1203 H   0  0  0  0  0
   -2.5967   -1.4364   -2.8631 H   0  0  0  0  0
   -0.6618   -1.2145   -0.4388 H   0  0  0  0  0
   -0.2573   -0.9535   -2.1875 H   0  0  0  0  0
   -2.1993   -5.6586   -0.9419 H   0  0  0  0  0
   -0.4241   -5.2470   -1.0648 H   0  0  0  0  0
   -0.9414   -6.4475    1.1046 H   0  0  0  0  0
   -0.3735   -4.7483    1.4194 H   0  0  0  0  0
   -2.1345   -5.1461    1.5429 H   0  0  0  0  0
   -2.0477    0.9132   -2.2184 H   0  0  0  0  0
    0.2318    1.3529   -0.1614 H   0  0  0  0  0
    0.5324    1.1143   -1.9283 H   0  0  0  0  0
   -3.2506    1.8782    2.1075 H   0  0  0  0  0
   -3.3068    0.0625    2.3123 H   0  0  0  0  0
   -2.3131    1.2185    4.3511 H   0  0  0  0  0
   -1.1025    0.1271    3.5433 H   0  0  0  0  0
   -1.0008    1.9185    3.3008 H   0  0  0  0  0
   -1.4737    3.0789   -1.9900 H   0  0  0  0  0
    0.6601    3.0429   -3.2877 H   0  0  0  0  0
    0.4071    4.6487   -2.4836 H   0  0  0  0  0
    1.5971    3.4672   -1.7892 H   0  0  0  0  0
    0.4522    5.4237    1.6992 H   0  0  0  0  0
   -0.6109    4.1176    2.4094 H   0  0  0  0  0
    1.5585    4.4149    3.7158 H   0  0  0  0  0
    1.4127    2.7518    2.9924 H   0  0  0  0  0
    2.4987    3.9783    2.2212 H   0  0  0  0  0
  1  2  1  0  0  0
  1  3  1  0  0  0
  1 22  1  0  0  0
  1 23  1  0  0  0
  2  8  1  0  0  0
  2 24  1  0  0  0
  2 25  1  0  0  0
  3  4  2  0  0  0
  3  5  1  0  0  0
  5  6  1  0  0  0
  6  7  1  0  0  0
  6 26  1  0  0  0
  6 27  1  0  0  0
  7 28  1  0  0  0
  7 29  1  0  0  0
  7 30  1  0  0  0
  8  9  1  0  0  0
  8 10  1  0  0  0
  8 31  1  0  0  0
  9 15  1  0  0  0
  9 32  1  0  0  0
  9 33  1  0  0  0
 10 11  2  0  0  0
 10 12  1  0  0  0
 12 13  1  0  0  0
 13 14  1  0  0  0
 13 34  1  0  0  0
 13 35  1  0  0  0
 14 36  1  0  0  0
 14 37  1  0  0  0
 14 38  1  0  0  0
 15 16  1  0  0  0
 15 17  1  0  0  0
 15 39  1  0  0  0
 16 40  1  0  0  0
 16 41  1  0  0  0
 16 42  1  0  0  0
 17 18  2  0  0  0
 17 19  1  0  0  0
 19 20  1  0  0  0
 20 21  1  0  0  0
 20 43  1  0  0  0
 20 44  1  0  0  0
 21 45  1  0  0  0
 21 46  1  0  0  0
 21 47  1  0  0  0
M  END
