C:\Mis documentos\Gara\Polímeros (Tg)\Base de datos polímeros\009 trimer poly(sec-butyl acrylate).hin
 OpenBabel04231221263D

 65 64  0  0  0  0  0  0  0  0999 V2000
   -1.1116   -1.8625   -1.2491 C   0  0  0  0  0
    0.1294   -1.1143   -0.8101 C   0  0  0  0  0
   -0.8742   -3.3417   -1.2492 C   0  0  0  0  0
    0.1825   -3.9496   -1.4328 O   0  0  0  0  0
   -2.0222   -4.0486   -1.0372 O   0  0  0  0  0
   -1.9366   -5.4929   -1.0416 C   0  0  0  0  0
   -1.4815   -5.9690    0.3224 C   0  0  0  0  0
   -3.3421   -5.9708   -1.3934 C   0  0  0  0  0
   -3.3234   -7.3847   -1.9122 C   0  0  0  0  0
   -0.0911    0.3916   -0.8709 C   0  0  0  0  0
    1.2222    1.1284   -0.6411 C   0  0  0  0  0
   -1.1021    0.7887    0.1785 C   0  0  0  0  0
   -1.0013    0.7059    1.4037 O   0  0  0  0  0
   -2.2457    1.2855   -0.3740 O   0  0  0  0  0
   -3.2892    1.7652    0.5050 C   0  0  0  0  0
   -3.6597    3.1458   -0.0016 C   0  0  0  0  0
   -4.4442    0.7733    0.4227 C   0  0  0  0  0
   -5.4061    0.9480    1.5682 C   0  0  0  0  0
    1.1161    2.6247   -0.9231 C   0  0  0  0  0
    2.2912    3.1138   -1.7471 C   0  0  0  0  0
    1.0840    3.3926    0.3780 C   0  0  0  0  0
    1.9414    3.4278    1.2614 O   0  0  0  0  0
   -0.0582    4.1269    0.5180 O   0  0  0  0  0
   -0.2621    4.8463    1.7560 C   0  0  0  0  0
   -0.9775    6.1256    1.3664 C   0  0  0  0  0
   -1.0965    3.9687    2.6830 C   0  0  0  0  0
   -1.0066    4.4299    4.1133 C   0  0  0  0  0
   -1.9772   -1.6171   -0.5761 H   0  0  0  0  0
   -1.4014   -1.5679   -2.2939 H   0  0  0  0  0
    0.4049   -1.4103    0.2370 H   0  0  0  0  0
    0.9886   -1.3941   -1.4761 H   0  0  0  0  0
   -1.2004   -5.8105   -1.8320 H   0  0  0  0  0
   -1.4962   -7.0843    0.3535 H   0  0  0  0  0
   -0.4417   -5.6112    0.5188 H   0  0  0  0  0
   -2.1538   -5.5743    1.1210 H   0  0  0  0  0
   -3.9956   -5.8993   -0.4854 H   0  0  0  0  0
   -3.7753   -5.2854   -2.1693 H   0  0  0  0  0
   -4.3624   -7.7155   -2.1548 H   0  0  0  0  0
   -2.7040   -7.4601   -2.8388 H   0  0  0  0  0
   -2.9003   -8.0828   -1.1496 H   0  0  0  0  0
   -0.5009    0.6653   -1.8849 H   0  0  0  0  0
    1.5674    0.9559    0.4141 H   0  0  0  0  0
    1.9953    0.6802   -1.3215 H   0  0  0  0  0
   -2.9034    1.8297    1.5617 H   0  0  0  0  0
   -4.5005    3.5491    0.6109 H   0  0  0  0  0
   -2.7790    3.8301    0.0825 H   0  0  0  0  0
   -3.9743    3.1008   -1.0712 H   0  0  0  0  0
   -4.9777    0.9044   -0.5545 H   0  0  0  0  0
   -4.0242   -0.2679    0.4357 H   0  0  0  0  0
   -6.2384    0.2078    1.4844 H   0  0  0  0  0
   -4.8907    0.7891    2.5465 H   0  0  0  0  0
   -5.8463    1.9746    1.5651 H   0  0  0  0  0
    0.1610    2.8399   -1.4831 H   0  0  0  0  0
    2.3275    2.5671   -2.7198 H   0  0  0  0  0
    2.1897    4.2062   -1.9551 H   0  0  0  0  0
    3.2494    2.9425   -1.1988 H   0  0  0  0  0
    0.7335    5.0757    2.2282 H   0  0  0  0  0
   -1.2443    6.6918    2.2903 H   0  0  0  0  0
   -0.3188    6.7574    0.7247 H   0  0  0  0  0
   -1.9096    5.8938    0.7969 H   0  0  0  0  0
   -2.1646    3.9775    2.3384 H   0  0  0  0  0
   -0.7333    2.9074    2.5992 H   0  0  0  0  0
   -1.6275    3.7702    4.7667 H   0  0  0  0  0
    0.0495    4.3900    4.4757 H   0  0  0  0  0
   -1.3757    5.4789    4.2188 H   0  0  0  0  0
  1  2  1  0  0  0
  1  3  1  0  0  0
  1 28  1  0  0  0
  1 29  1  0  0  0
  2 10  1  0  0  0
  2 30  1  0  0  0
  2 31  1  0  0  0
  3  4  2  0  0  0
  3  5  1  0  0  0
  5  6  1  0  0  0
  6  7  1  0  0  0
  6  8  1  0  0  0
  6 32  1  0  0  0
  7 33  1  0  0  0
  7 34  1  0  0  0
  7 35  1  0  0  0
  8  9  1  0  0  0
  8 36  1  0  0  0
  8 37  1  0  0  0
  9 38  1  0  0  0
  9 39  1  0  0  0
  9 40  1  0  0  0
 10 11  1  0  0  0
 10 12  1  0  0  0
 10 41  1  0  0  0
 11 19  1  0  0  0
 11 42  1  0  0  0
 11 43  1  0  0  0
 12 13  2  0  0  0
 12 14  1  0  0  0
 14 15  1  0  0  0
 15 16  1  0  0  0
 15 17  1  0  0  0
 15 44  1  0  0  0
 16 45  1  0  0  0
 16 46  1  0  0  0
 16 47  1  0  0  0
 17 18  1  0  0  0
 17 48  1  0  0  0
 17 49  1  0  0  0
 18 50  1  0  0  0
 18 51  1  0  0  0
 18 52  1  0  0  0
 19 20  1  0  0  0
 19 21  1  0  0  0
 19 53  1  0  0  0
 20 54  1  0  0  0
 20 55  1  0  0  0
 20 56  1  0  0  0
 21 22  2  0  0  0
 21 23  1  0  0  0
 23 24  1  0  0  0
 24 25  1  0  0  0
 24 26  1  0  0  0
 24 57  1  0  0  0
 25 58  1  0  0  0
 25 59  1  0  0  0
 25 60  1  0  0  0
 26 27  1  0  0  0
 26 61  1  0  0  0
 26 62  1  0  0  0
 27 63  1  0  0  0
 27 64  1  0  0  0
 27 65  1  0  0  0
M  END
