C:\Mis documentos\Gara\Polímeros (Tg)\Base de datos polímeros\010 trimer poly(vinyl alcohol).hin
 OpenBabel04231221273D

 23 22  0  0  0  0  0  0  0  0999 V2000
   -2.7101   -2.8608   -0.6427 C   0  0  0  0  0
   -2.7605   -1.4093   -0.1970 C   0  0  0  0  0
   -3.4879   -1.3901    1.0233 O   0  0  0  0  0
   -1.3536   -0.8437   -0.0197 C   0  0  0  0  0
   -1.3262    0.6792   -0.1088 C   0  0  0  0  0
   -2.0971    1.1653    0.9862 O   0  0  0  0  0
    0.1065    1.1965   -0.0483 C   0  0  0  0  0
    0.1970    2.6279   -0.5484 C   0  0  0  0  0
    1.5558    3.0178   -0.4376 O   0  0  0  0  0
   -2.2671   -2.9265   -1.6638 H   0  0  0  0  0
   -2.0931   -3.4622    0.0660 H   0  0  0  0  0
   -3.7420   -3.2858   -0.6602 H   0  0  0  0  0
   -3.3193   -0.7949   -0.9608 H   0  0  0  0  0
   -3.4288   -0.4925    1.3760 H   0  0  0  0  0
   -0.6852   -1.2542   -0.8191 H   0  0  0  0  0
   -0.9534   -1.1634    0.9772 H   0  0  0  0  0
   -1.8139    1.0150   -1.0695 H   0  0  0  0  0
   -2.0123    2.1252    0.9919 H   0  0  0  0  0
    0.7713    0.5491   -0.6764 H   0  0  0  0  0
    0.4830    1.1441    1.0063 H   0  0  0  0  0
   -0.1367    2.6966   -1.6190 H   0  0  0  0  0
   -0.4463    3.3089    0.0728 H   0  0  0  0  0
    1.6118    3.9215   -0.7690 H   0  0  0  0  0
  1  2  1  0  0  0
  1 10  1  0  0  0
  1 11  1  0  0  0
  1 12  1  0  0  0
  2  3  1  0  0  0
  2  4  1  0  0  0
  2 13  1  0  0  0
  3 14  1  0  0  0
  4  5  1  0  0  0
  4 15  1  0  0  0
  4 16  1  0  0  0
  5  6  1  0  0  0
  5  7  1  0  0  0
  5 17  1  0  0  0
  6 18  1  0  0  0
  7  8  1  0  0  0
  7 19  1  0  0  0
  7 20  1  0  0  0
  8  9  1  0  0  0
  8 21  1  0  0  0
  8 22  1  0  0  0
  9 23  1  0  0  0
M  END
