C:\Mis documentos\Gara\Polímeros (Tg)\Base de datos polímeros\011 trimer poly(vinyl chloride).hin
 OpenBabel04231221273D

 20 19  0  0  0  0  0  0  0  0999 V2000
   -2.7019   -3.2708   -0.8579 C   0  0  0  0  0
   -2.8257   -1.8113   -0.4830 C   0  0  0  0  0
   -3.9624   -1.6430    0.8627 Cl  0  0  0  0  0
   -1.4671   -1.2268   -0.1368 C   0  0  0  0  0
   -1.4033    0.2847   -0.2802 C   0  0  0  0  0
   -2.1120    1.0852    1.1293 Cl  0  0  0  0  0
    0.1149    2.2094   -0.8040 C   0  0  0  0  0
    1.7648    2.6886   -1.1634 Cl  0  0  0  0  0
    0.0357    0.7372   -0.4743 C   0  0  0  0  0
   -2.0735   -3.3726   -1.7764 H   0  0  0  0  0
   -2.2248   -3.8537   -0.0334 H   0  0  0  0  0
   -3.7075   -3.7099   -1.0669 H   0  0  0  0  0
   -3.2958   -1.2384   -1.3248 H   0  0  0  0  0
   -0.7124   -1.6771   -0.8403 H   0  0  0  0  0
   -1.1691   -1.5289    0.9021 H   0  0  0  0  0
   -2.0301    0.6233   -1.1467 H   0  0  0  0  0
   -0.2205    2.8378    0.0563 H   0  0  0  0  0
   -0.4923    2.4547   -1.7083 H   0  0  0  0  0
    0.4866    0.1418   -1.3141 H   0  0  0  0  0
    0.6323    0.5171    0.4502 H   0  0  0  0  0
  1  2  1  0  0  0
  1 10  1  0  0  0
  1 11  1  0  0  0
  1 12  1  0  0  0
  2  3  1  0  0  0
  2  4  1  0  0  0
  2 13  1  0  0  0
  4  5  1  0  0  0
  4 14  1  0  0  0
  4 15  1  0  0  0
  5  6  1  0  0  0
  5  9  1  0  0  0
  5 16  1  0  0  0
  7  8  1  0  0  0
  7  9  1  0  0  0
  7 17  1  0  0  0
  7 18  1  0  0  0
  9 19  1  0  0  0
  9 20  1  0  0  0
M  END
