C:\Mis documentos\Gara\Polímeros (Tg)\Base de datos polímeros\012  trimer poly(acrylonitrile).hin
 OpenBabel04231221283D

 23 22  0  0  0  0  0  0  0  0999 V2000
   -0.3086   -1.3724   -0.4765 C   0  0  0  0  0
   -1.6960   -1.9514   -0.6881 C   0  0  0  0  0
   -1.6417   -3.3812   -0.8953 C   0  0  0  0  0
   -1.6076   -4.5313   -1.0634 N   0  0  0  0  0
    1.0635    0.6980   -0.2234 C   0  0  0  0  0
   -0.3568    0.1465   -0.3196 C   0  0  0  0  0
   -1.1434    0.5130    0.8456 C   0  0  0  0  0
   -1.7785    0.8033    1.7750 N   0  0  0  0  0
    2.5933    2.5911   -0.7749 C   0  0  0  0  0
    1.1492    2.1933   -0.5133 C   0  0  0  0  0
    0.6071    2.9822    0.5793 C   0  0  0  0  0
    0.1802    3.6292    1.4456 N   0  0  0  0  0
    0.1619   -1.8302    0.4324 H   0  0  0  0  0
    0.3402   -1.6219   -1.3573 H   0  0  0  0  0
   -2.3445   -1.7348    0.2071 H   0  0  0  0  0
   -2.1822   -1.4720   -1.5832 H   0  0  0  0  0
    1.4887    0.4811    0.7908 H   0  0  0  0  0
    1.7014    0.1635   -0.9784 H   0  0  0  0  0
   -0.8625    0.5865   -1.2305 H   0  0  0  0  0
    2.6661    3.6902   -0.9569 H   0  0  0  0  0
    3.2380    2.3303    0.0983 H   0  0  0  0  0
    2.9758    2.0532   -1.6756 H   0  0  0  0  0
    0.5394    2.4236   -1.4377 H   0  0  0  0  0
  1  2  1  0  0  0
  1  6  1  0  0  0
  1 13  1  0  0  0
  1 14  1  0  0  0
  2  3  1  0  0  0
  2 15  1  0  0  0
  2 16  1  0  0  0
  3  4  3  0  0  0
  5  6  1  0  0  0
  5 10  1  0  0  0
  5 17  1  0  0  0
  5 18  1  0  0  0
  6  7  1  0  0  0
  6 19  1  0  0  0
  7  8  3  0  0  0
  9 10  1  0  0  0
  9 20  1  0  0  0
  9 21  1  0  0  0
  9 22  1  0  0  0
 10 11  1  0  0  0
 10 23  1  0  0  0
 11 12  3  0  0  0
M  END
