C:\Mis documentos\Gara\Polímeros (Tg)\Base de datos polímeros\013 trimer poly(vinyl acetate).hin
 OpenBabel04231221283D

 38 37  0  0  0  0  0  0  0  0999 V2000
   -1.0927   -2.1515   -0.6625 C   0  0  0  0  0
    0.1056   -1.3080   -0.2635 C   0  0  0  0  0
   -0.6081   -3.0848   -1.6321 O   0  0  0  0  0
   -1.4357   -4.1266   -1.9817 C   0  0  0  0  0
   -0.9339   -4.8403   -2.8506 O   0  0  0  0  0
   -2.7630   -4.3005   -1.3326 C   0  0  0  0  0
   -0.3306   -0.0911    0.5462 C   0  0  0  0  0
    0.8672    0.7809    0.9142 C   0  0  0  0  0
   -0.9268   -0.6097    1.7428 O   0  0  0  0  0
   -1.8332    0.1701    2.4292 C   0  0  0  0  0
   -2.2025   -0.3869    3.4645 O   0  0  0  0  0
   -2.2896    1.4879    1.9140 C   0  0  0  0  0
    1.1730    1.8193   -0.1620 C   0  0  0  0  0
    2.4390    2.5818    0.1801 C   0  0  0  0  0
    0.0496    2.7161   -0.1620 O   0  0  0  0  0
   -0.2712    3.3994   -1.3112 C   0  0  0  0  0
   -1.2481    4.1307   -1.1390 O   0  0  0  0  0
    0.4863    3.2154   -2.5783 C   0  0  0  0  0
   -1.5088   -2.6852    0.2316 H   0  0  0  0  0
   -1.8946   -1.5252   -1.1356 H   0  0  0  0  0
    0.8121   -1.9351    0.3398 H   0  0  0  0  0
    0.6481   -0.9569   -1.1791 H   0  0  0  0  0
   -3.3236   -5.1206   -1.8455 H   0  0  0  0  0
   -2.6268   -4.5744   -0.2570 H   0  0  0  0  0
   -3.3564   -3.3562   -1.3960 H   0  0  0  0  0
   -1.0865    0.5094   -0.0329 H   0  0  0  0  0
    0.6554    1.3056    1.8833 H   0  0  0  0  0
    1.7764    0.1433    1.0642 H   0  0  0  0  0
   -2.8508    2.0246    2.7185 H   0  0  0  0  0
   -1.4267    2.1212    1.5851 H   0  0  0  0  0
   -2.9732    1.3337    1.0425 H   0  0  0  0  0
    1.2667    1.3177   -1.1644 H   0  0  0  0  0
    3.3077    1.8814    0.1937 H   0  0  0  0  0
    2.6312    3.3838   -0.5716 H   0  0  0  0  0
    2.3421    3.0601    1.1846 H   0  0  0  0  0
    0.1417    3.9730   -3.3257 H   0  0  0  0  0
    1.5827    3.3444   -2.4097 H   0  0  0  0  0
    0.2961    2.1936   -2.9904 H   0  0  0  0  0
  1  2  1  0  0  0
  1  3  1  0  0  0
  1 19  1  0  0  0
  1 20  1  0  0  0
  2  7  1  0  0  0
  2 21  1  0  0  0
  2 22  1  0  0  0
  3  4  1  0  0  0
  4  5  2  0  0  0
  4  6  1  0  0  0
  6 23  1  0  0  0
  6 24  1  0  0  0
  6 25  1  0  0  0
  7  8  1  0  0  0
  7  9  1  0  0  0
  7 26  1  0  0  0
  8 13  1  0  0  0
  8 27  1  0  0  0
  8 28  1  0  0  0
  9 10  1  0  0  0
 10 11  2  0  0  0
 10 12  1  0  0  0
 12 29  1  0  0  0
 12 30  1  0  0  0
 12 31  1  0  0  0
 13 14  1  0  0  0
 13 15  1  0  0  0
 13 32  1  0  0  0
 14 33  1  0  0  0
 14 34  1  0  0  0
 14 35  1  0  0  0
 15 16  1  0  0  0
 16 17  2  0  0  0
 16 18  1  0  0  0
 18 36  1  0  0  0
 18 37  1  0  0  0
 18 38  1  0  0  0
M  END
