C:\Mis documentos\Gara\Polímeros (Tg)\Base de datos polímeros\014 trimer poly(styrene).hin
 OpenBabel04231221293D

 50 52  0  0  0  0  0  0  0  0999 V2000
   -1.0671   -3.4160    0.8301 C   0  0  0  0  0
   -1.0486   -1.9176    0.5868 C   0  0  0  0  0
    0.3083   -1.4700    0.1393 C   0  0  0  0  0
    1.0158   -0.5244    0.8917 C   0  0  0  0  0
    0.8912   -1.9885   -1.0238 C   0  0  0  0  0
    2.2833   -0.1063    0.4886 C   0  0  0  0  0
    2.8569   -0.6273   -0.6704 C   0  0  0  0  0
    2.1579   -1.5689   -1.4256 C   0  0  0  0  0
   -2.1284   -1.5435   -0.4235 C   0  0  0  0  0
   -2.3684   -0.0382   -0.5005 C   0  0  0  0  0
   -2.9543    0.3258   -1.8303 C   0  0  0  0  0
   -2.3247    1.2794   -2.6390 C   0  0  0  0  0
   -4.1318   -0.2823   -2.2837 C   0  0  0  0  0
   -2.8652    1.6197   -3.8785 C   0  0  0  0  0
   -4.0386    1.0114   -4.3224 C   0  0  0  0  0
   -4.6705    0.0591   -3.5225 C   0  0  0  0  0
   -3.2729    0.4250    0.6374 C   0  0  0  0  0
   -3.2264    1.9320    0.8090 C   0  0  0  0  0
   -4.1636    2.3943    1.8688 C   0  0  0  0  0
   -3.6787    2.8339    3.1057 C   0  0  0  0  0
   -5.5441    2.4036    1.6326 C   0  0  0  0  0
   -4.5609    3.2742    4.0915 C   0  0  0  0  0
   -5.9342    3.2794    3.8507 C   0  0  0  0  0
   -6.4240    2.8435    2.6193 C   0  0  0  0  0
   -2.0567   -3.7251    1.2449 H   0  0  0  0  0
   -0.8919   -3.9726   -0.1218 H   0  0  0  0  0
   -0.2705   -3.6998    1.5586 H   0  0  0  0  0
   -1.2898   -1.4067    1.5643 H   0  0  0  0  0
    0.5704   -0.1088    1.8080 H   0  0  0  0  0
    0.3442   -2.7312   -1.6240 H   0  0  0  0  0
    2.8307    0.6360    1.0878 H   0  0  0  0  0
    3.8566   -0.2975   -0.9878 H   0  0  0  0  0
    2.6065   -1.9821   -2.3409 H   0  0  0  0  0
   -3.0848   -2.0577   -0.1410 H   0  0  0  0  0
   -1.8287   -1.9237   -1.4356 H   0  0  0  0  0
   -1.3699    0.4777   -0.3898 H   0  0  0  0  0
   -1.3968    1.7617   -2.2965 H   0  0  0  0  0
   -4.6305   -1.0359   -1.6557 H   0  0  0  0  0
   -2.3629    2.3699   -4.5066 H   0  0  0  0  0
   -4.4642    1.2804   -5.2998 H   0  0  0  0  0
   -5.5953   -0.4243   -3.8697 H   0  0  0  0  0
   -2.9491   -0.0668    1.5921 H   0  0  0  0  0
   -4.3280    0.1019    0.4350 H   0  0  0  0  0
   -2.1777    2.2457    1.0602 H   0  0  0  0  0
   -3.4938    2.4216   -0.1672 H   0  0  0  0  0
   -2.5959    2.8336    3.3005 H   0  0  0  0  0
   -5.9306    2.0622    0.6606 H   0  0  0  0  0
   -4.1711    3.6187    5.0605 H   0  0  0  0  0
   -6.6292    3.6271    4.6285 H   0  0  0  0  0
   -7.5066    2.8482    2.4256 H   0  0  0  0  0
  1  2  1  0  0  0
  1 25  1  0  0  0
  1 26  1  0  0  0
  1 27  1  0  0  0
  2  3  1  0  0  0
  2  9  1  0  0  0
  2 28  1  0  0  0
  3  4  2  0  0  0
  3  5  1  0  0  0
  4  6  1  0  0  0
  4 29  1  0  0  0
  5  8  2  0  0  0
  5 30  1  0  0  0
  6  7  2  0  0  0
  6 31  1  0  0  0
  7  8  1  0  0  0
  7 32  1  0  0  0
  8 33  1  0  0  0
  9 10  1  0  0  0
  9 34  1  0  0  0
  9 35  1  0  0  0
 10 11  1  0  0  0
 10 17  1  0  0  0
 10 36  1  0  0  0
 11 12  2  0  0  0
 11 13  1  0  0  0
 12 14  1  0  0  0
 12 37  1  0  0  0
 13 16  2  0  0  0
 13 38  1  0  0  0
 14 15  2  0  0  0
 14 39  1  0  0  0
 15 16  1  0  0  0
 15 40  1  0  0  0
 16 41  1  0  0  0
 17 18  1  0  0  0
 17 42  1  0  0  0
 17 43  1  0  0  0
 18 19  1  0  0  0
 18 44  1  0  0  0
 18 45  1  0  0  0
 19 20  2  0  0  0
 19 21  1  0  0  0
 20 22  1  0  0  0
 20 46  1  0  0  0
 21 24  2  0  0  0
 21 47  1  0  0  0
 22 23  2  0  0  0
 22 48  1  0  0  0
 23 24  1  0  0  0
 23 49  1  0  0  0
 24 50  1  0  0  0
M  END
