C:\Mis documentos\Gara\Polímeros (Tg)\Base de datos polímeros\015 trimer poly(2-chlorostyrene).hin
 OpenBabel04231221333D

 50 52  0  0  0  0  0  0  0  0999 V2000
   -0.3418   -1.0585   -1.2604 C   0  0  0  0  0
   -0.7410   -0.6974    0.1544 C   0  0  0  0  0
   -0.1331   -2.5124   -1.4986 C   0  0  0  0  0
    0.3073   -2.9542   -2.7603 C   0  0  0  0  0
   -0.3635   -3.4753   -0.5090 C   0  0  0  0  0
   -0.1607   -4.8305   -0.7629 C   0  0  0  0  0
    0.2782   -5.2512   -2.0168 C   0  0  0  0  0
    0.5128   -4.3125   -3.0190 C   0  0  0  0  0
    0.6028   -1.8424   -4.0172 Cl  0  0  0  0  0
   -0.9105    0.8094    0.3225 C   0  0  0  0  0
   -1.4778    1.1497    1.7000 C   0  0  0  0  0
    0.3893    1.5323    0.1292 C   0  0  0  0  0
    0.5684    2.5059   -0.8662 C   0  0  0  0  0
    1.7952    3.1662   -1.0113 C   0  0  0  0  0
    2.8543    2.8621   -0.1613 C   0  0  0  0  0
    2.6902    1.9001    0.8355 C   0  0  0  0  0
    1.4702    1.2461    0.9766 C   0  0  0  0  0
   -0.6853    2.9324   -1.9391 Cl  0  0  0  0  0
   -2.9281    0.6995    1.8778 C   0  0  0  0  0
   -3.0185   -0.4927    2.8157 C   0  0  0  0  0
   -3.7778    1.8170    2.4043 C   0  0  0  0  0
   -4.9749    2.2118    1.7888 C   0  0  0  0  0
   -5.7421    3.2575    2.3186 C   0  0  0  0  0
   -5.3208    3.9152    3.4702 C   0  0  0  0  0
   -4.1340    3.5311    4.0955 C   0  0  0  0  0
   -3.3741    2.4934    3.5655 C   0  0  0  0  0
   -5.5530    1.4455    0.3799 Cl  0  0  0  0  0
   -1.1340   -0.6915   -1.9714 H   0  0  0  0  0
    0.6073   -0.5104   -1.5203 H   0  0  0  0  0
   -1.7167   -1.1928    0.4065 H   0  0  0  0  0
    0.0294   -1.0721    0.8782 H   0  0  0  0  0
   -0.7118   -3.1674    0.4886 H   0  0  0  0  0
   -0.3489   -5.5689    0.0305 H   0  0  0  0  0
    0.4392   -6.3201   -2.2187 H   0  0  0  0  0
    0.8586   -4.6395   -4.0116 H   0  0  0  0  0
   -1.6504    1.1596   -0.4544 H   0  0  0  0  0
   -0.8352    0.6803    2.4908 H   0  0  0  0  0
   -1.4092    2.2622    1.8366 H   0  0  0  0  0
    1.9207    3.9257   -1.7983 H   0  0  0  0  0
    3.8171    3.3808   -0.2776 H   0  0  0  0  0
    3.5247    1.6576    1.5099 H   0  0  0  0  0
    1.3467    0.4888    1.7665 H   0  0  0  0  0
   -3.3279    0.3781    0.8727 H   0  0  0  0  0
   -2.3705   -1.3236    2.4455 H   0  0  0  0  0
   -2.6830   -0.2118    3.8432 H   0  0  0  0  0
   -4.0714   -0.8589    2.8743 H   0  0  0  0  0
   -6.6781    3.5582    1.8231 H   0  0  0  0  0
   -5.9243    4.7360    3.8846 H   0  0  0  0  0
   -3.7987    4.0485    5.0064 H   0  0  0  0  0
   -2.4369    2.1908    4.0584 H   0  0  0  0  0
  1  2  1  0  0  0
  1  3  1  0  0  0
  1 28  1  0  0  0
  1 29  1  0  0  0
  2 10  1  0  0  0
  2 30  1  0  0  0
  2 31  1  0  0  0
  3  4  2  0  0  0
  3  5  1  0  0  0
  4  8  1  0  0  0
  4  9  1  0  0  0
  5  6  2  0  0  0
  5 32  1  0  0  0
  6  7  1  0  0  0
  6 33  1  0  0  0
  7  8  2  0  0  0
  7 34  1  0  0  0
  8 35  1  0  0  0
 10 11  1  0  0  0
 10 12  1  0  0  0
 10 36  1  0  0  0
 11 19  1  0  0  0
 11 37  1  0  0  0
 11 38  1  0  0  0
 12 13  2  0  0  0
 12 17  1  0  0  0
 13 14  1  0  0  0
 13 18  1  0  0  0
 14 15  2  0  0  0
 14 39  1  0  0  0
 15 16  1  0  0  0
 15 40  1  0  0  0
 16 17  2  0  0  0
 16 41  1  0  0  0
 17 42  1  0  0  0
 19 20  1  0  0  0
 19 21  1  0  0  0
 19 43  1  0  0  0
 20 44  1  0  0  0
 20 45  1  0  0  0
 20 46  1  0  0  0
 21 22  2  0  0  0
 21 26  1  0  0  0
 22 23  1  0  0  0
 22 27  1  0  0  0
 23 24  2  0  0  0
 23 47  1  0  0  0
 24 25  1  0  0  0
 24 48  1  0  0  0
 25 26  2  0  0  0
 25 49  1  0  0  0
 26 50  1  0  0  0
M  END
