C:\Mis documentos\Gara\Polímeros (Tg)\Base de datos polímeros\016 trimer poly(3-chlorostyrene).hin
 OpenBabel04231221343D

 50 52  0  0  0  0  0  0  0  0999 V2000
   -0.1910   -1.0792   -1.2253 C   0  0  0  0  0
   -0.0049   -1.0189    0.2796 C   0  0  0  0  0
    0.0827   -2.4446   -1.7523 C   0  0  0  0  0
    1.3443   -2.7577   -2.2699 C   0  0  0  0  0
    1.5904   -4.0415   -2.7644 C   0  0  0  0  0
    0.5905   -5.0185   -2.7496 C   0  0  0  0  0
   -0.6646   -4.6990   -2.2336 C   0  0  0  0  0
   -0.9195   -3.4220   -1.7379 C   0  0  0  0  0
   -0.1838    0.3996    0.8121 C   0  0  0  0  0
   -0.3583    0.3860    2.3288 C   0  0  0  0  0
    0.9797    1.2626    0.4295 C   0  0  0  0  0
    0.8032    2.3038   -0.4883 C   0  0  0  0  0
    1.8907    3.1076   -0.8426 C   0  0  0  0  0
    3.1556    2.8853   -0.2910 C   0  0  0  0  0
    3.3246    1.8470    0.6240 C   0  0  0  0  0
    2.2468    1.0407    0.9832 C   0  0  0  0  0
   -1.7979    0.1032    2.7473 C   0  0  0  0  0
   -1.8486   -0.2613    4.2198 C   0  0  0  0  0
   -2.6905    1.2704    2.4569 C   0  0  0  0  0
   -3.7157    1.1419    1.5130 C   0  0  0  0  0
   -4.5519    2.2289    1.2427 C   0  0  0  0  0
   -4.3778    3.4478    1.9040 C   0  0  0  0  0
   -3.3543    3.5703    2.8427 C   0  0  0  0  0
   -2.5159    2.4922    3.1186 C   0  0  0  0  0
    3.1262   -4.4184   -3.3925 Cl  0  0  0  0  0
    1.6697    4.3717   -1.9596 Cl  0  0  0  0  0
   -5.7956    2.0636    0.0934 Cl  0  0  0  0  0
   -1.2428   -0.7813   -1.4840 H   0  0  0  0  0
    0.4942   -0.3335   -1.7124 H   0  0  0  0  0
   -0.7519   -1.6963    0.7714 H   0  0  0  0  0
    1.0173   -1.3936    0.5496 H   0  0  0  0  0
    2.1365   -1.9936   -2.2878 H   0  0  0  0  0
    0.7899   -6.0269   -3.1414 H   0  0  0  0  0
   -1.4574   -5.4619   -2.2200 H   0  0  0  0  0
   -1.9131   -3.1769   -1.3340 H   0  0  0  0  0
   -1.1225    0.8327    0.3571 H   0  0  0  0  0
    0.3116   -0.3969    2.7730 H   0  0  0  0  0
   -0.0423    1.3763    2.7507 H   0  0  0  0  0
   -0.1888    2.4906   -0.9279 H   0  0  0  0  0
    4.0077    3.5209   -0.5740 H   0  0  0  0  0
    4.3168    1.6652    1.0636 H   0  0  0  0  0
    2.3876    0.2238    1.7074 H   0  0  0  0  0
   -2.1669   -0.7870    2.1588 H   0  0  0  0  0
   -1.2591   -1.1917    4.4043 H   0  0  0  0  0
   -1.4214    0.5588    4.8454 H   0  0  0  0  0
   -2.9035   -0.4385    4.5389 H   0  0  0  0  0
   -3.8646    0.1871    0.9858 H   0  0  0  0  0
   -5.0385    4.3003    1.6874 H   0  0  0  0  0
   -3.2091    4.5265    3.3676 H   0  0  0  0  0
   -1.7101    2.6010    3.8605 H   0  0  0  0  0
  1  2  1  0  0  0
  1  3  1  0  0  0
  1 28  1  0  0  0
  1 29  1  0  0  0
  2  9  1  0  0  0
  2 30  1  0  0  0
  2 31  1  0  0  0
  3  4  2  0  0  0
  3  8  1  0  0  0
  4  5  1  0  0  0
  4 32  1  0  0  0
  5  6  2  0  0  0
  5 25  1  0  0  0
  6  7  1  0  0  0
  6 33  1  0  0  0
  7  8  2  0  0  0
  7 34  1  0  0  0
  8 35  1  0  0  0
  9 10  1  0  0  0
  9 11  1  0  0  0
  9 36  1  0  0  0
 10 17  1  0  0  0
 10 37  1  0  0  0
 10 38  1  0  0  0
 11 12  2  0  0  0
 11 16  1  0  0  0
 12 13  1  0  0  0
 12 39  1  0  0  0
 13 14  2  0  0  0
 13 26  1  0  0  0
 14 15  1  0  0  0
 14 40  1  0  0  0
 15 16  2  0  0  0
 15 41  1  0  0  0
 16 42  1  0  0  0
 17 18  1  0  0  0
 17 19  1  0  0  0
 17 43  1  0  0  0
 18 44  1  0  0  0
 18 45  1  0  0  0
 18 46  1  0  0  0
 19 20  2  0  0  0
 19 24  1  0  0  0
 20 21  1  0  0  0
 20 47  1  0  0  0
 21 22  2  0  0  0
 21 27  1  0  0  0
 22 23  1  0  0  0
 22 48  1  0  0  0
 23 24  2  0  0  0
 23 49  1  0  0  0
 24 50  1  0  0  0
M  END
