C:\Mis documentos\Gara\Polímeros (Tg)\Base de datos polímeros\017 trimer poly(4-chlorostyrene).hin
 OpenBabel04231221343D

 50 52  0  0  0  0  0  0  0  0999 V2000
    0.2254   -1.3996   -1.8436 C   0  0  0  0  0
   -0.1750   -0.8831   -0.4742 C   0  0  0  0  0
    0.5702   -2.8468   -1.8039 C   0  0  0  0  0
   -0.3122   -3.8035   -2.3177 C   0  0  0  0  0
    0.0129   -5.1581   -2.2861 C   0  0  0  0  0
    1.2328   -5.5612   -1.7353 C   0  0  0  0  0
    2.1251   -4.6156   -1.2197 C   0  0  0  0  0
    1.7898   -3.2646   -1.2569 C   0  0  0  0  0
   -0.4155    0.6250   -0.4902 C   0  0  0  0  0
   -1.1952    1.0591    0.7507 C   0  0  0  0  0
    0.8862    1.3612   -0.5850 C   0  0  0  0  0
    1.2397    2.0183   -1.7691 C   0  0  0  0  0
    2.4491    2.7036   -1.8674 C   0  0  0  0  0
    3.3161    2.7331   -0.7715 C   0  0  0  0  0
    2.9762    2.0808    0.4182 C   0  0  0  0  0
    1.7650    1.3995    0.5050 C   0  0  0  0  0
   -2.6775    1.2894    0.4712 C   0  0  0  0  0
   -3.3902    0.0082    0.0839 C   0  0  0  0  0
   -3.3302    1.9141    1.6667 C   0  0  0  0  0
   -3.8761    3.1997    1.5753 C   0  0  0  0  0
   -4.4879    3.7921    2.6782 C   0  0  0  0  0
   -4.5553    3.0934    3.8870 C   0  0  0  0  0
   -4.0136    1.8086    3.9933 C   0  0  0  0  0
   -3.4046    1.2267    2.8843 C   0  0  0  0  0
    1.6357   -7.2129   -1.6931 Cl  0  0  0  0  0
    4.7932    3.5674   -0.8846 Cl  0  0  0  0  0
   -5.3008    3.8099    5.2370 Cl  0  0  0  0  0
   -0.6160   -1.2252   -2.5669 H   0  0  0  0  0
    1.1098   -0.8131   -2.2153 H   0  0  0  0  0
   -1.1131   -1.4016   -0.1413 H   0  0  0  0  0
    0.6273   -1.1265    0.2711 H   0  0  0  0  0
   -1.2722   -3.4868   -2.7529 H   0  0  0  0  0
   -0.6872   -5.9032   -2.6930 H   0  0  0  0  0
    3.0860   -4.9347   -0.7887 H   0  0  0  0  0
    2.4901   -2.5169   -0.8541 H   0  0  0  0  0
   -1.0298    0.8702   -1.4048 H   0  0  0  0  0
   -1.0846    0.2893    1.5592 H   0  0  0  0  0
   -0.7628    2.0168    1.1471 H   0  0  0  0  0
    0.5591    1.9970   -2.6339 H   0  0  0  0  0
    2.7169    3.2179   -2.8028 H   0  0  0  0  0
    3.6588    2.1060    1.2810 H   0  0  0  0  0
    1.4922    0.8872    1.4406 H   0  0  0  0  0
   -2.7595    2.0075   -0.3966 H   0  0  0  0  0
   -2.9711   -0.3897   -0.8722 H   0  0  0  0  0
   -3.2680   -0.7689    0.8765 H   0  0  0  0  0
   -4.4809    0.2002   -0.0586 H   0  0  0  0  0
   -3.8241    3.7531    0.6251 H   0  0  0  0  0
   -4.9140    4.8033    2.5954 H   0  0  0  0  0
   -4.0672    1.2593    4.9453 H   0  0  0  0  0
   -2.9789    0.2149    2.9671 H   0  0  0  0  0
  1  2  1  0  0  0
  1  3  1  0  0  0
  1 28  1  0  0  0
  1 29  1  0  0  0
  2  9  1  0  0  0
  2 30  1  0  0  0
  2 31  1  0  0  0
  3  4  2  0  0  0
  3  8  1  0  0  0
  4  5  1  0  0  0
  4 32  1  0  0  0
  5  6  2  0  0  0
  5 33  1  0  0  0
  6  7  1  0  0  0
  6 25  1  0  0  0
  7  8  2  0  0  0
  7 34  1  0  0  0
  8 35  1  0  0  0
  9 10  1  0  0  0
  9 11  1  0  0  0
  9 36  1  0  0  0
 10 17  1  0  0  0
 10 37  1  0  0  0
 10 38  1  0  0  0
 11 12  2  0  0  0
 11 16  1  0  0  0
 12 13  1  0  0  0
 12 39  1  0  0  0
 13 14  2  0  0  0
 13 40  1  0  0  0
 14 15  1  0  0  0
 14 26  1  0  0  0
 15 16  2  0  0  0
 15 41  1  0  0  0
 16 42  1  0  0  0
 17 18  1  0  0  0
 17 19  1  0  0  0
 17 43  1  0  0  0
 18 44  1  0  0  0
 18 45  1  0  0  0
 18 46  1  0  0  0
 19 20  2  0  0  0
 19 24  1  0  0  0
 20 21  1  0  0  0
 20 47  1  0  0  0
 21 22  2  0  0  0
 21 48  1  0  0  0
 22 23  1  0  0  0
 22 27  1  0  0  0
 23 24  2  0  0  0
 23 49  1  0  0  0
 24 50  1  0  0  0
M  END
