C:\Mis documentos\Gara\Polímeros (Tg)\Base de datos polímeros\018 trimer poly(2-methylstyrene).hin
 OpenBabel04231221343D

 59 61  0  0  0  0  0  0  0  0999 V2000
   -0.4940   -1.1106   -1.5076 C   0  0  0  0  0
   -0.8222   -0.6969   -0.0888 C   0  0  0  0  0
   -0.2281   -2.5635   -1.6919 C   0  0  0  0  0
    0.2716   -3.0089   -2.9324 C   0  0  0  0  0
    0.5174   -4.3712   -3.1315 C   0  0  0  0  0
    0.2734   -5.2933   -2.1159 C   0  0  0  0  0
   -0.2208   -4.8551   -0.8894 C   0  0  0  0  0
   -0.4692   -3.4992   -0.6812 C   0  0  0  0  0
    0.5438   -2.0458   -4.0250 C   0  0  0  0  0
   -0.9949    0.8148    0.0270 C   0  0  0  0  0
   -1.5564    1.2010    1.3947 C   0  0  0  0  0
    0.3048    1.5271   -0.2087 C   0  0  0  0  0
    0.4998    2.3610   -1.3241 C   0  0  0  0  0
    1.7294    3.0134   -1.4881 C   0  0  0  0  0
    2.7583    2.8435   -0.5665 C   0  0  0  0  0
    2.5685    2.0115    0.5361 C   0  0  0  0  0
    1.3505    1.3604    0.7097 C   0  0  0  0  0
   -0.5606    2.5676   -2.3400 C   0  0  0  0  0
   -3.0157    0.7839    1.5826 C   0  0  0  0  0
   -3.1322   -0.3581    2.5787 C   0  0  0  0  0
   -3.8595    1.9361    2.0424 C   0  0  0  0  0
   -5.0701    2.2664    1.4096 C   0  0  0  0  0
   -5.8208    3.3497    1.8871 C   0  0  0  0  0
   -5.3865    4.0955    2.9788 C   0  0  0  0  0
   -4.1893    3.7629    3.6122 C   0  0  0  0  0
   -3.4355    2.6903    3.1453 C   0  0  0  0  0
   -5.5810    1.4957    0.2503 C   0  0  0  0  0
   -1.3456   -0.8176   -2.1838 H   0  0  0  0  0
    0.4067   -0.5284   -1.8528 H   0  0  0  0  0
   -1.7767   -1.1906    0.2359 H   0  0  0  0  0
   -0.0089   -1.0344    0.6057 H   0  0  0  0  0
    0.9079   -4.7171   -4.1005 H   0  0  0  0  0
    0.4705   -6.3618   -2.2835 H   0  0  0  0  0
   -0.4160   -5.5772   -0.0833 H   0  0  0  0  0
   -0.8597   -3.1734    0.2946 H   0  0  0  0  0
    0.8249   -2.5718   -4.9701 H   0  0  0  0  0
   -0.3597   -1.4168   -4.2265 H   0  0  0  0  0
    1.3846   -1.3641   -3.7386 H   0  0  0  0  0
   -1.7437    1.1366   -0.7525 H   0  0  0  0  0
   -0.9253    0.7390    2.1986 H   0  0  0  0  0
   -1.4644    2.3148    1.5032 H   0  0  0  0  0
    1.8819    3.6690   -2.3590 H   0  0  0  0  0
    3.7171    3.3627   -0.7088 H   0  0  0  0  0
    3.3777    1.8690    1.2669 H   0  0  0  0  0
    1.2060    0.7025    1.5805 H   0  0  0  0  0
   -1.4522    3.0639   -1.8805 H   0  0  0  0  0
   -0.1980    3.2126   -3.1780 H   0  0  0  0  0
   -0.8835    1.5853   -2.7699 H   0  0  0  0  0
   -3.4082    0.4144    0.5917 H   0  0  0  0  0
   -2.4942   -1.2173    2.2600 H   0  0  0  0  0
   -2.8033   -0.0281    3.5936 H   0  0  0  0  0
   -4.1918   -0.7037    2.6446 H   0  0  0  0  0
   -6.7678    3.6119    1.3912 H   0  0  0  0  0
   -5.9863    4.9427    3.3412 H   0  0  0  0  0
   -3.8415    4.3452    4.4776 H   0  0  0  0  0
   -2.4914    2.4253    3.6463 H   0  0  0  0  0
   -6.5855    1.8668   -0.0708 H   0  0  0  0  0
   -4.8825    1.5874   -0.6192 H   0  0  0  0  0
   -5.6777    0.4122    0.5131 H   0  0  0  0  0
  1  2  1  0  0  0
  1  3  1  0  0  0
  1 28  1  0  0  0
  1 29  1  0  0  0
  2 10  1  0  0  0
  2 30  1  0  0  0
  2 31  1  0  0  0
  3  4  2  0  0  0
  3  8  1  0  0  0
  4  5  1  0  0  0
  4  9  1  0  0  0
  5  6  2  0  0  0
  5 32  1  0  0  0
  6  7  1  0  0  0
  6 33  1  0  0  0
  7  8  2  0  0  0
  7 34  1  0  0  0
  8 35  1  0  0  0
  9 36  1  0  0  0
  9 37  1  0  0  0
  9 38  1  0  0  0
 10 11  1  0  0  0
 10 12  1  0  0  0
 10 39  1  0  0  0
 11 19  1  0  0  0
 11 40  1  0  0  0
 11 41  1  0  0  0
 12 13  2  0  0  0
 12 17  1  0  0  0
 13 14  1  0  0  0
 13 18  1  0  0  0
 14 15  2  0  0  0
 14 42  1  0  0  0
 15 16  1  0  0  0
 15 43  1  0  0  0
 16 17  2  0  0  0
 16 44  1  0  0  0
 17 45  1  0  0  0
 18 46  1  0  0  0
 18 47  1  0  0  0
 18 48  1  0  0  0
 19 20  1  0  0  0
 19 21  1  0  0  0
 19 49  1  0  0  0
 20 50  1  0  0  0
 20 51  1  0  0  0
 20 52  1  0  0  0
 21 22  2  0  0  0
 21 26  1  0  0  0
 22 23  1  0  0  0
 22 27  1  0  0  0
 23 24  2  0  0  0
 23 53  1  0  0  0
 24 25  1  0  0  0
 24 54  1  0  0  0
 25 26  2  0  0  0
 25 55  1  0  0  0
 26 56  1  0  0  0
 27 57  1  0  0  0
 27 58  1  0  0  0
 27 59  1  0  0  0
M  END
