C:\Mis documentos\Gara\Polímeros (Tg)\Base de datos polímeros\019 trimer poly(3-methylstyrene).hin
 OpenBabel04231221353D

 59 61  0  0  0  0  0  0  0  0999 V2000
   -0.3579   -1.0251   -1.4399 C   0  0  0  0  0
   -0.0590   -0.9560    0.0461 C   0  0  0  0  0
   -0.1643   -2.4018   -1.9725 C   0  0  0  0  0
    1.0074   -2.7367   -2.6574 C   0  0  0  0  0
    1.1938   -4.0282   -3.1637 C   0  0  0  0  0
    0.1928   -4.9884   -2.9809 C   0  0  0  0  0
   -0.9775   -4.6585   -2.2992 C   0  0  0  0  0
   -1.1582   -3.3723   -1.7961 C   0  0  0  0  0
   -0.1388    0.4747    0.5704 C   0  0  0  0  0
   -0.2038    0.4835    2.0955 C   0  0  0  0  0
    1.0284    1.2820    0.0903 C   0  0  0  0  0
    0.8367    2.3003   -0.8486 C   0  0  0  0  0
    1.9176    3.0622   -1.3073 C   0  0  0  0  0
    3.2013    2.7973   -0.8186 C   0  0  0  0  0
    3.3974    1.7841    0.1183 C   0  0  0  0  0
    2.3187    1.0288    0.5723 C   0  0  0  0  0
   -1.6225    0.2773    2.6179 C   0  0  0  0  0
   -1.5850   -0.1084    4.0854 C   0  0  0  0  0
   -2.4642    1.4984    2.4089 C   0  0  0  0  0
   -3.5561    1.4523    1.5354 C   0  0  0  0  0
   -4.3566    2.5813    1.3308 C   0  0  0  0  0
   -4.0576    3.7677    2.0104 C   0  0  0  0  0
   -2.9700    3.8199    2.8795 C   0  0  0  0  0
   -2.1751    2.6931    3.0793 C   0  0  0  0  0
    2.4468   -4.3706   -3.8755 C   0  0  0  0  0
    1.6952    4.1468   -2.2913 C   0  0  0  0  0
   -5.5027    2.5285    0.3939 C   0  0  0  0  0
   -1.4175   -0.6994   -1.6222 H   0  0  0  0  0
    0.3093   -0.3024   -1.9833 H   0  0  0  0  0
   -0.7946   -1.5967    0.6005 H   0  0  0  0  0
    0.9643   -1.3696    0.2459 H   0  0  0  0  0
    1.7919   -1.9783   -2.8017 H   0  0  0  0  0
    0.3299   -6.0050   -3.3776 H   0  0  0  0  0
   -1.7616   -5.4170   -2.1593 H   0  0  0  0  0
   -2.0825   -3.1140   -1.2590 H   0  0  0  0  0
   -1.0892    0.9430    0.1793 H   0  0  0  0  0
    0.4572   -0.3279    2.5003 H   0  0  0  0  0
    0.1903    1.4604    2.4813 H   0  0  0  0  0
   -0.1737    2.5091   -1.2320 H   0  0  0  0  0
    4.0564    3.3902   -1.1750 H   0  0  0  0  0
    4.4083    1.5802    0.5008 H   0  0  0  0  0
    2.4760    0.2300    1.3122 H   0  0  0  0  0
   -2.0856   -0.5804    2.0483 H   0  0  0  0  0
   -1.0436   -1.0766    4.2135 H   0  0  0  0  0
   -1.0606    0.6729    4.6863 H   0  0  0  0  0
   -2.6220   -0.2243    4.4820 H   0  0  0  0  0
   -3.7913    0.5183    1.0026 H   0  0  0  0  0
   -4.6841    4.6583    1.8564 H   0  0  0  0  0
   -2.7373    4.7547    3.4106 H   0  0  0  0  0
   -1.3164    2.7417    3.7655 H   0  0  0  0  0
    2.3217   -5.2933   -4.4935 H   0  0  0  0  0
    2.7612   -3.5344   -4.5480 H   0  0  0  0  0
    3.2684   -4.5518   -3.1371 H   0  0  0  0  0
    2.6369    4.3921   -2.8410 H   0  0  0  0  0
    0.9164    3.8529   -3.0377 H   0  0  0  0  0
    1.3443    5.0714   -1.7669 H   0  0  0  0  0
   -6.3535    3.1476    0.7717 H   0  0  0  0  0
   -5.1968    2.9288   -0.6058 H   0  0  0  0  0
   -5.8632    1.4797    0.2552 H   0  0  0  0  0
  1  2  1  0  0  0
  1  3  1  0  0  0
  1 28  1  0  0  0
  1 29  1  0  0  0
  2  9  1  0  0  0
  2 30  1  0  0  0
  2 31  1  0  0  0
  3  4  2  0  0  0
  3  8  1  0  0  0
  4  5  1  0  0  0
  4 32  1  0  0  0
  5  6  2  0  0  0
  5 25  1  0  0  0
  6  7  1  0  0  0
  6 33  1  0  0  0
  7  8  2  0  0  0
  7 34  1  0  0  0
  8 35  1  0  0  0
  9 10  1  0  0  0
  9 11  1  0  0  0
  9 36  1  0  0  0
 10 17  1  0  0  0
 10 37  1  0  0  0
 10 38  1  0  0  0
 11 12  2  0  0  0
 11 16  1  0  0  0
 12 13  1  0  0  0
 12 39  1  0  0  0
 13 14  2  0  0  0
 13 26  1  0  0  0
 14 15  1  0  0  0
 14 40  1  0  0  0
 15 16  2  0  0  0
 15 41  1  0  0  0
 16 42  1  0  0  0
 17 18  1  0  0  0
 17 19  1  0  0  0
 17 43  1  0  0  0
 18 44  1  0  0  0
 18 45  1  0  0  0
 18 46  1  0  0  0
 19 20  2  0  0  0
 19 24  1  0  0  0
 20 21  1  0  0  0
 20 47  1  0  0  0
 21 22  2  0  0  0
 21 27  1  0  0  0
 22 23  1  0  0  0
 22 48  1  0  0  0
 23 24  2  0  0  0
 23 49  1  0  0  0
 24 50  1  0  0  0
 25 51  1  0  0  0
 25 52  1  0  0  0
 25 53  1  0  0  0
 26 54  1  0  0  0
 26 55  1  0  0  0
 26 56  1  0  0  0
 27 57  1  0  0  0
 27 58  1  0  0  0
 27 59  1  0  0  0
M  END
