C:\Mis documentos\Gara\Polímeros (Tg)\Base de datos polímeros\020 trimer poly(4-methylstyrene).hin
 OpenBabel04231221353D

 59 61  0  0  0  0  0  0  0  0999 V2000
    0.3106   -0.7170   -1.9213 C   0  0  0  0  0
    0.0584   -0.4961   -0.4415 C   0  0  0  0  0
    0.5115   -2.1581   -2.2338 C   0  0  0  0  0
   -0.4747   -2.8872   -2.9072 C   0  0  0  0  0
   -0.2785   -4.2340   -3.2029 C   0  0  0  0  0
    0.9071   -4.8776   -2.8304 C   0  0  0  0  0
    1.8952   -4.1472   -2.1596 C   0  0  0  0  0
    1.6995   -2.8009   -1.8648 C   0  0  0  0  0
   -0.0769    0.9849   -0.1057 C   0  0  0  0  0
   -0.6341    1.1762    1.3033 C   0  0  0  0  0
    1.2371    1.6932   -0.2345 C   0  0  0  0  0
    1.3990    2.7057   -1.1873 C   0  0  0  0  0
    2.6155    3.3730   -1.3114 C   0  0  0  0  0
    3.6944    3.0425   -0.4841 C   0  0  0  0  0
    3.5332    2.0304    0.4696 C   0  0  0  0  0
    2.3175    1.3636    0.5933 C   0  0  0  0  0
   -2.1095    0.7921    1.4181 C   0  0  0  0  0
   -2.2845   -0.4343    2.2972 C   0  0  0  0  0
   -2.9275    1.9266    1.9543 C   0  0  0  0  0
   -4.0336    2.3989    1.2394 C   0  0  0  0  0
   -4.8038    3.4467    1.7397 C   0  0  0  0  0
   -4.4832    4.0420    2.9644 C   0  0  0  0  0
   -3.3746    3.5714    3.6789 C   0  0  0  0  0
   -2.6053    2.5250    3.1789 C   0  0  0  0  0
    1.1059   -6.3134   -3.1321 C   0  0  0  0  0
    4.9833    3.7611   -0.6041 C   0  0  0  0  0
   -5.3094    5.1445    3.5065 C   0  0  0  0  0
   -0.5554   -0.3130   -2.5111 H   0  0  0  0  0
    1.2222   -0.1364   -2.2306 H   0  0  0  0  0
   -0.8842   -1.0266   -0.1424 H   0  0  0  0  0
    0.8980   -0.9427    0.1534 H   0  0  0  0  0
   -1.4113   -2.3936   -3.2070 H   0  0  0  0  0
   -1.0601   -4.7972   -3.7342 H   0  0  0  0  0
    2.8332   -4.6411   -1.8653 H   0  0  0  0  0
    2.4826   -2.2336   -1.3395 H   0  0  0  0  0
   -0.8045    1.4444   -0.8360 H   0  0  0  0  0
   -0.0251    0.5676    2.0226 H   0  0  0  0  0
   -0.5018    2.2532    1.5910 H   0  0  0  0  0
    0.5597    2.9794   -1.8444 H   0  0  0  0  0
    2.7291    4.1659   -2.0656 H   0  0  0  0  0
    4.3745    1.7612    1.1254 H   0  0  0  0  0
    2.2036    0.5712    1.3486 H   0  0  0  0  0
   -2.4976    0.5333    0.3899 H   0  0  0  0  0
   -1.6866   -1.2866    1.8934 H   0  0  0  0  0
   -1.9439   -0.2222    3.3394 H   0  0  0  0  0
   -3.3589   -0.7355    2.3312 H   0  0  0  0  0
   -4.2997    1.9417    0.2746 H   0  0  0  0  0
   -5.6703    3.8093    1.1670 H   0  0  0  0  0
   -3.1109    4.0341    4.6415 H   0  0  0  0  0
   -1.7349    2.1625    3.7467 H   0  0  0  0  0
    0.6403   -6.9400   -2.3297 H   0  0  0  0  0
    0.6304   -6.5855   -4.1067 H   0  0  0  0  0
    2.1932   -6.5667   -3.1864 H   0  0  0  0  0
    5.0075    4.6229    0.1100 H   0  0  0  0  0
    5.8411    3.0854   -0.3645 H   0  0  0  0  0
    5.1260    4.1605   -1.6383 H   0  0  0  0  0
   -4.6777    5.8783    4.0656 H   0  0  0  0  0
   -5.8425    5.6882    2.6883 H   0  0  0  0  0
   -6.0762    4.7353    4.2121 H   0  0  0  0  0
  1  2  1  0  0  0
  1  3  1  0  0  0
  1 28  1  0  0  0
  1 29  1  0  0  0
  2  9  1  0  0  0
  2 30  1  0  0  0
  2 31  1  0  0  0
  3  4  2  0  0  0
  3  8  1  0  0  0
  4  5  1  0  0  0
  4 32  1  0  0  0
  5  6  2  0  0  0
  5 33  1  0  0  0
  6  7  1  0  0  0
  6 25  1  0  0  0
  7  8  2  0  0  0
  7 34  1  0  0  0
  8 35  1  0  0  0
  9 10  1  0  0  0
  9 11  1  0  0  0
  9 36  1  0  0  0
 10 17  1  0  0  0
 10 37  1  0  0  0
 10 38  1  0  0  0
 11 12  2  0  0  0
 11 16  1  0  0  0
 12 13  1  0  0  0
 12 39  1  0  0  0
 13 14  2  0  0  0
 13 40  1  0  0  0
 14 15  1  0  0  0
 14 26  1  0  0  0
 15 16  2  0  0  0
 15 41  1  0  0  0
 16 42  1  0  0  0
 17 18  1  0  0  0
 17 19  1  0  0  0
 17 43  1  0  0  0
 18 44  1  0  0  0
 18 45  1  0  0  0
 18 46  1  0  0  0
 19 20  2  0  0  0
 19 24  1  0  0  0
 20 21  1  0  0  0
 20 47  1  0  0  0
 21 22  2  0  0  0
 21 48  1  0  0  0
 22 23  1  0  0  0
 22 27  1  0  0  0
 23 24  2  0  0  0
 23 49  1  0  0  0
 24 50  1  0  0  0
 25 51  1  0  0  0
 25 52  1  0  0  0
 25 53  1  0  0  0
 26 54  1  0  0  0
 26 55  1  0  0  0
 26 56  1  0  0  0
 27 57  1  0  0  0
 27 58  1  0  0  0
 27 59  1  0  0  0
M  END
