C:\Mis documentos\Gara\Polímeros (Tg)\Base de datos polímeros\021 trimer poly(4-fluorostyrene).hin
 OpenBabel04231221363D

 50 52  0  0  0  0  0  0  0  0999 V2000
    0.3239   -0.9028   -1.8906 C   0  0  0  0  0
    0.0264   -0.6583   -0.4229 C   0  0  0  0  0
    0.5550   -2.3462   -2.1699 C   0  0  0  0  0
   -0.4137   -3.1072   -2.8336 C   0  0  0  0  0
   -0.1998   -4.4553   -3.1031 C   0  0  0  0  0
    1.0064   -5.0578   -2.7021 C   0  0  0  0  0
    1.9881   -4.3007   -2.0357 C   0  0  0  0  0
    1.7536   -2.9549   -1.7772 C   0  0  0  0  0
   -0.1197    0.8284   -0.1166 C   0  0  0  0  0
   -0.7531    1.0401    1.2568 C   0  0  0  0  0
    1.2036    1.5277   -0.1833 C   0  0  0  0  0
    1.4267    2.5151   -1.1505 C   0  0  0  0  0
    2.6470    3.1788   -1.2259 C   0  0  0  0  0
    3.6693    2.8529   -0.3164 C   0  0  0  0  0
    3.4556    1.8635    0.6612 C   0  0  0  0  0
    2.2281    1.2128    0.7182 C   0  0  0  0  0
   -2.2412    0.6891    1.2842 C   0  0  0  0  0
   -2.5030   -0.4925    2.2020 C   0  0  0  0  0
   -3.0697    1.8628    1.7080 C   0  0  0  0  0
   -4.1005    2.3304    0.8851 C   0  0  0  0  0
   -4.8847    3.4138    1.2692 C   0  0  0  0  0
   -4.6363    4.0456    2.5009 C   0  0  0  0  0
   -2.8308    2.5000    2.9323 C   0  0  0  0  0
   -3.6018    3.5839    3.3361 C   0  0  0  0  0
    1.2245   -6.3700   -2.9590 F   0  0  0  0  0
    4.8615    3.4927   -0.3809 F   0  0  0  0  0
   -5.3940    5.1011    2.8845 F   0  0  0  0  0
   -0.5309   -0.5235   -2.5123 H   0  0  0  0  0
    1.2352   -0.3142   -2.1855 H   0  0  0  0  0
   -0.9244   -1.1848   -0.1430 H   0  0  0  0  0
    0.8477   -1.0939    0.2050 H   0  0  0  0  0
   -1.3575   -2.6368   -3.1495 H   0  0  0  0  0
   -0.9602   -5.0533   -3.6250 H   0  0  0  0  0
    2.9289   -4.7791   -1.7283 H   0  0  0  0  0
    2.5206   -2.3590   -1.2586 H   0  0  0  0  0
   -0.8032    1.2813   -0.8923 H   0  0  0  0  0
   -0.2019    0.4202    2.0123 H   0  0  0  0  0
   -0.6129    2.1147    1.5494 H   0  0  0  0  0
    0.6283    2.7753   -1.8629 H   0  0  0  0  0
    2.8206    3.9541   -1.9858 H   0  0  0  0  0
    4.2588    1.6158    1.3698 H   0  0  0  0  0
    2.0609    0.4404    1.4851 H   0  0  0  0  0
   -2.5623    0.3891    0.2439 H   0  0  0  0  0
   -1.9062   -1.3763    1.8702 H   0  0  0  0  0
   -2.2190   -0.2451    3.2533 H   0  0  0  0  0
   -3.5855   -0.7648    2.1832 H   0  0  0  0  0
   -4.2992    1.8384   -0.0796 H   0  0  0  0  0
   -5.6945    3.7804    0.6224 H   0  0  0  0  0
   -2.0203    2.1367    3.5835 H   0  0  0  0  0
   -3.4139    4.0833    4.2972 H   0  0  0  0  0
  1  2  1  0  0  0
  1  3  1  0  0  0
  1 28  1  0  0  0
  1 29  1  0  0  0
  2  9  1  0  0  0
  2 30  1  0  0  0
  2 31  1  0  0  0
  3  4  2  0  0  0
  3  8  1  0  0  0
  4  5  1  0  0  0
  4 32  1  0  0  0
  5  6  2  0  0  0
  5 33  1  0  0  0
  6  7  1  0  0  0
  6 25  1  0  0  0
  7  8  2  0  0  0
  7 34  1  0  0  0
  8 35  1  0  0  0
  9 10  1  0  0  0
  9 11  1  0  0  0
  9 36  1  0  0  0
 10 17  1  0  0  0
 10 37  1  0  0  0
 10 38  1  0  0  0
 11 12  2  0  0  0
 11 16  1  0  0  0
 12 13  1  0  0  0
 12 39  1  0  0  0
 13 14  2  0  0  0
 13 40  1  0  0  0
 14 15  1  0  0  0
 14 26  1  0  0  0
 15 16  2  0  0  0
 15 41  1  0  0  0
 16 42  1  0  0  0
 17 18  1  0  0  0
 17 19  1  0  0  0
 17 43  1  0  0  0
 18 44  1  0  0  0
 18 45  1  0  0  0
 18 46  1  0  0  0
 19 20  2  0  0  0
 19 23  1  0  0  0
 20 21  1  0  0  0
 20 47  1  0  0  0
 21 22  2  0  0  0
 21 48  1  0  0  0
 22 24  1  0  0  0
 22 27  1  0  0  0
 23 24  2  0  0  0
 23 49  1  0  0  0
 24 50  1  0  0  0
M  END
