C:\Mis documentos\Gara\Polímeros (Tg)\Base de datos polímeros\022 trimer poly(propylene).hin
 OpenBabel04231221363D

 29 28  0  0  0  0  0  0  0  0999 V2000
   -3.0328   -2.4382   -0.8905 C   0  0  0  0  0
   -3.1311   -1.1710   -0.0645 C   0  0  0  0  0
   -3.8565   -1.4583    1.2348 C   0  0  0  0  0
   -1.7468   -0.5862    0.1950 C   0  0  0  0  0
   -1.6710    0.9163   -0.0495 C   0  0  0  0  0
   -2.5409    1.6768    0.9290 C   0  0  0  0  0
   -0.2205    1.3743    0.0436 C   0  0  0  0  0
    0.0025    2.7222   -0.6095 C   0  0  0  0  0
    1.4520    3.1305   -0.5447 C   0  0  0  0  0
   -2.5668   -2.2233   -1.8821 H   0  0  0  0  0
   -2.4111   -3.2024   -0.3651 H   0  0  0  0  0
   -4.0494   -2.8673   -1.0620 H   0  0  0  0  0
   -3.7394   -0.4228   -0.6488 H   0  0  0  0  0
   -3.9057   -0.5377    1.8654 H   0  0  0  0  0
   -4.8972   -1.8063    1.0285 H   0  0  0  0  0
   -3.3269   -2.2539    1.8125 H   0  0  0  0  0
   -1.0007   -1.0907   -0.4764 H   0  0  0  0  0
   -1.4332   -0.8014    1.2502 H   0  0  0  0  0
   -2.0424    1.1240   -1.0933 H   0  0  0  0  0
   -2.4456    2.7771    0.7648 H   0  0  0  0  0
   -3.6134    1.3933    0.7966 H   0  0  0  0  0
   -2.2427    1.4486    1.9808 H   0  0  0  0  0
    0.4416    0.6176   -0.4559 H   0  0  0  0  0
    0.0865    1.4223    1.1212 H   0  0  0  0  0
   -0.3280    2.6787   -1.6811 H   0  0  0  0  0
   -0.6278    3.4990   -0.1014 H   0  0  0  0  0
    1.5960    4.1281   -1.0254 H   0  0  0  0  0
    1.7961    3.1970    0.5158 H   0  0  0  0  0
    2.0957    2.3875   -1.0749 H   0  0  0  0  0
  1  2  1  0  0  0
  1 10  1  0  0  0
  1 11  1  0  0  0
  1 12  1  0  0  0
  2  3  1  0  0  0
  2  4  1  0  0  0
  2 13  1  0  0  0
  3 14  1  0  0  0
  3 15  1  0  0  0
  3 16  1  0  0  0
  4  5  1  0  0  0
  4 17  1  0  0  0
  4 18  1  0  0  0
  5  6  1  0  0  0
  5  7  1  0  0  0
  5 19  1  0  0  0
  6 20  1  0  0  0
  6 21  1  0  0  0
  6 22  1  0  0  0
  7  8  1  0  0  0
  7 23  1  0  0  0
  7 24  1  0  0  0
  8  9  1  0  0  0
  8 25  1  0  0  0
  8 26  1  0  0  0
  9 27  1  0  0  0
  9 28  1  0  0  0
  9 29  1  0  0  0
M  END
