C:\Mis documentos\Gara\Polímeros (Tg)\Base de datos polímeros\023 trimer poly(1-pentene).hin
 OpenBabel04231221373D

 47 46  0  0  0  0  0  0  0  0999 V2000
   -2.2845   -0.8488   -0.6814 C   0  0  0  0  0
   -1.4664   -1.8001    0.1671 C   0  0  0  0  0
   -3.7178   -1.3566   -0.7902 C   0  0  0  0  0
   -4.4326   -0.8192   -2.0121 C   0  0  0  0  0
   -5.8425   -1.3453   -2.0991 C   0  0  0  0  0
   -0.8978    1.2432   -0.2238 C   0  0  0  0  0
   -2.2621    0.5637   -0.1116 C   0  0  0  0  0
   -1.1001    2.7089   -0.5934 C   0  0  0  0  0
    0.1969    3.4386   -0.8689 C   0  0  0  0  0
   -0.0563    4.8339   -1.3803 C   0  0  0  0  0
    1.3585    0.7737    0.8159 C   0  0  0  0  0
   -0.1006    1.0954    1.0692 C   0  0  0  0  0
    2.1376    0.7136    2.1126 C   0  0  0  0  0
    3.5926    0.3750    1.8666 C   0  0  0  0  0
    4.3718    0.3147    3.1548 C   0  0  0  0  0
   -1.8370   -0.8239   -1.7156 H   0  0  0  0  0
   -0.4054   -1.4538    0.2218 H   0  0  0  0  0
   -1.8764   -1.8533    1.2043 H   0  0  0  0  0
   -1.4810   -2.8266   -0.2727 H   0  0  0  0  0
   -3.7092   -2.4781   -0.8414 H   0  0  0  0  0
   -4.2862   -1.0732    0.1342 H   0  0  0  0  0
   -4.4533    0.3021   -1.9790 H   0  0  0  0  0
   -3.8654   -1.1105   -2.9357 H   0  0  0  0  0
   -6.3530   -0.9395   -3.0055 H   0  0  0  0  0
   -5.8444   -2.4604   -2.1628 H   0  0  0  0  0
   -6.4316   -1.0458   -1.1987 H   0  0  0  0  0
   -0.3217    0.7537   -1.0597 H   0  0  0  0  0
   -2.5893    0.5368    0.9609 H   0  0  0  0  0
   -3.0268    1.1727   -0.6655 H   0  0  0  0  0
   -1.7461    2.7645   -1.5108 H   0  0  0  0  0
   -1.6531    3.2280    0.2332 H   0  0  0  0  0
    0.8061    3.4907    0.0724 H   0  0  0  0  0
    0.7986    2.8648   -1.6226 H   0  0  0  0  0
    0.9109    5.3626   -1.5593 H   0  0  0  0  0
   -0.6256    4.8060   -2.3409 H   0  0  0  0  0
   -0.6491    5.4235   -0.6398 H   0  0  0  0  0
    1.4403   -0.2113    0.2839 H   0  0  0  0  0
    1.8091    1.5491    0.1415 H   0  0  0  0  0
   -0.5405    0.2740    1.6970 H   0  0  0  0  0
   -0.1765    2.0392    1.6711 H   0  0  0  0  0
    2.0665    1.7011    2.6405 H   0  0  0  0  0
    1.6825   -0.0563    2.7900 H   0  0  0  0  0
    3.6621   -0.6121    1.3375 H   0  0  0  0  0
    4.0455    1.1452    1.1877 H   0  0  0  0  0
    5.4408    0.0644    2.9510 H   0  0  0  0  0
    4.3344    1.2971    3.6848 H   0  0  0  0  0
    3.9504   -0.4651    3.8344 H   0  0  0  0  0
  1  2  1  0  0  0
  1  3  1  0  0  0
  1  7  1  0  0  0
  1 16  1  0  0  0
  2 17  1  0  0  0
  2 18  1  0  0  0
  2 19  1  0  0  0
  3  4  1  0  0  0
  3 20  1  0  0  0
  3 21  1  0  0  0
  4  5  1  0  0  0
  4 22  1  0  0  0
  4 23  1  0  0  0
  5 24  1  0  0  0
  5 25  1  0  0  0
  5 26  1  0  0  0
  6  7  1  0  0  0
  6  8  1  0  0  0
  6 12  1  0  0  0
  6 27  1  0  0  0
  7 28  1  0  0  0
  7 29  1  0  0  0
  8  9  1  0  0  0
  8 30  1  0  0  0
  8 31  1  0  0  0
  9 10  1  0  0  0
  9 32  1  0  0  0
  9 33  1  0  0  0
 10 34  1  0  0  0
 10 35  1  0  0  0
 10 36  1  0  0  0
 11 12  1  0  0  0
 11 13  1  0  0  0
 11 37  1  0  0  0
 11 38  1  0  0  0
 12 39  1  0  0  0
 12 40  1  0  0  0
 13 14  1  0  0  0
 13 41  1  0  0  0
 13 42  1  0  0  0
 14 15  1  0  0  0
 14 43  1  0  0  0
 14 44  1  0  0  0
 15 45  1  0  0  0
 15 46  1  0  0  0
 15 47  1  0  0  0
M  END
