C:\Mis documentos\Gara\Polímeros (Tg)\Base de datos polímeros\024 trimer poly(ethoxyethylene).hin
 OpenBabel04231221373D

 41 40  0  0  0  0  0  0  0  0999 V2000
   -2.4008   -3.0814    0.0114 C   0  0  0  0  0
   -2.3584   -1.5704   -0.1254 C   0  0  0  0  0
   -3.6790   -1.0196   -0.0542 O   0  0  0  0  0
   -4.4113   -1.1473   -1.2708 C   0  0  0  0  0
   -5.7517   -0.4862   -1.0447 C   0  0  0  0  0
   -1.5795   -0.9469    1.0289 C   0  0  0  0  0
   -1.2969    0.5343    0.7913 C   0  0  0  0  0
   -1.0442    1.1842    2.0422 O   0  0  0  0  0
   -2.2321    1.6258    2.6979 C   0  0  0  0  0
   -1.8081    2.1916    4.0336 C   0  0  0  0  0
   -0.0381    0.7258   -0.0489 C   0  0  0  0  0
    0.0943    2.1686   -0.5000 C   0  0  0  0  0
    1.2604    2.2337   -1.3190 O   0  0  0  0  0
    1.5598    3.5684   -1.7232 C   0  0  0  0  0
    2.8023    3.4996   -2.5803 C   0  0  0  0  0
   -1.3628   -3.4897    0.0391 H   0  0  0  0  0
   -2.9291   -3.3684    0.9517 H   0  0  0  0  0
   -2.9416   -3.5377   -0.8515 H   0  0  0  0  0
   -1.8855   -1.2877   -1.1085 H   0  0  0  0  0
   -3.8496   -0.6445   -2.1036 H   0  0  0  0  0
   -4.5381   -2.2335   -1.5238 H   0  0  0  0  0
   -6.3645   -0.5669   -1.9735 H   0  0  0  0  0
   -6.2929   -0.9820   -0.2038 H   0  0  0  0  0
   -5.6165    0.5911   -0.7871 H   0  0  0  0  0
   -0.6157   -1.5022    1.1585 H   0  0  0  0  0
   -2.1719   -1.0625    1.9739 H   0  0  0  0  0
   -2.1838    1.0077    0.2828 H   0  0  0  0  0
   -2.7321    2.4103    2.0681 H   0  0  0  0  0
   -2.9404    0.7653    2.8306 H   0  0  0  0  0
   -2.7070    2.5662    4.5779 H   0  0  0  0  0
   -1.3079    1.4058    4.6483 H   0  0  0  0  0
   -1.0893    3.0332    3.8899 H   0  0  0  0  0
   -0.0865    0.0524   -0.9425 H   0  0  0  0  0
    0.8644    0.4411    0.5514 H   0  0  0  0  0
   -0.7988    2.4900   -1.1002 H   0  0  0  0  0
    0.2048    2.8484    0.3865 H   0  0  0  0  0
    0.6929    3.9878   -2.3011 H   0  0  0  0  0
    1.7308    4.2061   -0.8146 H   0  0  0  0  0
    3.0758    4.5270   -2.9182 H   0  0  0  0  0
    3.6512    3.0660   -1.9998 H   0  0  0  0  0
    2.6237    2.8550   -3.4737 H   0  0  0  0  0
  1  2  1  0  0  0
  1 16  1  0  0  0
  1 17  1  0  0  0
  1 18  1  0  0  0
  2  3  1  0  0  0
  2  6  1  0  0  0
  2 19  1  0  0  0
  3  4  1  0  0  0
  4  5  1  0  0  0
  4 20  1  0  0  0
  4 21  1  0  0  0
  5 22  1  0  0  0
  5 23  1  0  0  0
  5 24  1  0  0  0
  6  7  1  0  0  0
  6 25  1  0  0  0
  6 26  1  0  0  0
  7  8  1  0  0  0
  7 11  1  0  0  0
  7 27  1  0  0  0
  8  9  1  0  0  0
  9 10  1  0  0  0
  9 28  1  0  0  0
  9 29  1  0  0  0
 10 30  1  0  0  0
 10 31  1  0  0  0
 10 32  1  0  0  0
 11 12  1  0  0  0
 11 33  1  0  0  0
 11 34  1  0  0  0
 12 13  1  0  0  0
 12 35  1  0  0  0
 12 36  1  0  0  0
 13 14  1  0  0  0
 14 15  1  0  0  0
 14 37  1  0  0  0
 14 38  1  0  0  0
 15 39  1  0  0  0
 15 40  1  0  0  0
 15 41  1  0  0  0
M  END
