C:\Mis documentos\Gara\Polímeros (Tg)\Base de datos polímeros\025 trimer poly(tert-butyl acrylate).hin
 OpenBabel04231221373D

 65 64  0  0  0  0  0  0  0  0999 V2000
   -0.7825    2.5965   -1.2258 C   0  0  0  0  0
   -1.0768    4.0568   -1.4158 C   0  0  0  0  0
   -2.1579    4.5774   -1.6970 O   0  0  0  0  0
    0.0424    4.8165   -1.2622 O   0  0  0  0  0
   -0.0065    6.2576   -1.4196 C   0  0  0  0  0
    1.4383    6.6824   -1.1625 C   0  0  0  0  0
   -0.4229    6.6285   -2.8334 C   0  0  0  0  0
   -0.9317    6.8778   -0.3856 C   0  0  0  0  0
   -2.0022    1.8643   -0.7080 C   0  0  0  0  0
   -1.7866    0.3589   -0.7065 C   0  0  0  0  0
   -3.0851   -0.3632   -0.3615 C   0  0  0  0  0
   -0.7319   -0.0182    0.3117 C   0  0  0  0  0
   -0.5604    0.4650    1.4313 O   0  0  0  0  0
    0.0712   -1.0196   -0.1437 O   0  0  0  0  0
    1.0244   -1.6677    0.7385 C   0  0  0  0  0
    1.6104   -2.7728   -0.1383 C   0  0  0  0  0
    2.1111   -0.6932    1.1597 C   0  0  0  0  0
    0.3094   -2.2666    1.9390 C   0  0  0  0  0
   -3.0008   -1.8529   -0.6764 C   0  0  0  0  0
   -3.4454   -2.1523   -2.0927 C   0  0  0  0  0
   -3.8716   -2.6174    0.2951 C   0  0  0  0  0
   -5.0978   -2.5819    0.4023 O   0  0  0  0  0
   -3.1240   -3.4135    1.1091 O   0  0  0  0  0
   -3.7448   -4.2267    2.1370 C   0  0  0  0  0
   -2.5544   -4.9394    2.7771 C   0  0  0  0  0
   -4.4479   -3.3488    3.1592 C   0  0  0  0  0
   -4.6982   -5.2372    1.5216 C   0  0  0  0  0
   -0.4660    2.1875   -2.2227 H   0  0  0  0  0
    0.0771    2.4736   -0.5139 H   0  0  0  0  0
    1.5149    7.7909   -1.2566 H   0  0  0  0  0
    1.7520    6.3756   -0.1369 H   0  0  0  0  0
    2.1184    6.2004   -1.9038 H   0  0  0  0  0
   -0.2895    7.7261   -2.9830 H   0  0  0  0  0
    0.2071    6.0817   -3.5746 H   0  0  0  0  0
   -1.4945    6.3664   -3.0071 H   0  0  0  0  0
   -0.8233    7.9880   -0.4097 H   0  0  0  0  0
   -1.9945    6.6120   -0.6023 H   0  0  0  0  0
   -0.6685    6.5088    0.6342 H   0  0  0  0  0
   -2.2337    2.2079    0.3354 H   0  0  0  0  0
   -2.8878    2.1121   -1.3526 H   0  0  0  0  0
   -1.4374    0.0262   -1.7248 H   0  0  0  0  0
   -3.3114   -0.2092    0.7272 H   0  0  0  0  0
   -3.9273    0.0945   -0.9450 H   0  0  0  0  0
    2.3814   -3.3301    0.4435 H   0  0  0  0  0
    0.8057   -3.4771   -0.4558 H   0  0  0  0  0
    2.0816   -2.3326   -1.0485 H   0  0  0  0  0
    2.9086   -1.2442    1.7123 H   0  0  0  0  0
    2.5607   -0.2080    0.2609 H   0  0  0  0  0
    1.6899    0.0992    1.8245 H   0  0  0  0  0
    0.9955   -2.9681    2.4695 H   0  0  0  0  0
   -0.0046   -1.4617    2.6468 H   0  0  0  0  0
   -0.6004   -2.8262    1.6061 H   0  0  0  0  0
   -1.9337   -2.2008   -0.5404 H   0  0  0  0  0
   -2.8569   -1.5324   -2.8113 H   0  0  0  0  0
   -3.2805   -3.2304   -2.3314 H   0  0  0  0  0
   -4.5313   -1.9212   -2.2196 H   0  0  0  0  0
   -2.9128   -5.5466    3.6408 H   0  0  0  0  0
   -2.0622   -5.6090    2.0331 H   0  0  0  0  0
   -1.8065   -4.1914    3.1338 H   0  0  0  0  0
   -4.7938   -3.9777    4.0134 H   0  0  0  0  0
   -3.7472   -2.5691    3.5420 H   0  0  0  0  0
   -5.3321   -2.8451    2.6986 H   0  0  0  0  0
   -5.0134   -5.9713    2.3006 H   0  0  0  0  0
   -5.6045   -4.7243    1.1178 H   0  0  0  0  0
   -4.1934   -5.7841    0.6901 H   0  0  0  0  0
  1  2  1  0  0  0
  1  9  1  0  0  0
  1 28  1  0  0  0
  1 29  1  0  0  0
  2  3  2  0  0  0
  2  4  1  0  0  0
  4  5  1  0  0  0
  5  6  1  0  0  0
  5  7  1  0  0  0
  5  8  1  0  0  0
  6 30  1  0  0  0
  6 31  1  0  0  0
  6 32  1  0  0  0
  7 33  1  0  0  0
  7 34  1  0  0  0
  7 35  1  0  0  0
  8 36  1  0  0  0
  8 37  1  0  0  0
  8 38  1  0  0  0
  9 10  1  0  0  0
  9 39  1  0  0  0
  9 40  1  0  0  0
 10 11  1  0  0  0
 10 12  1  0  0  0
 10 41  1  0  0  0
 11 19  1  0  0  0
 11 42  1  0  0  0
 11 43  1  0  0  0
 12 13  2  0  0  0
 12 14  1  0  0  0
 14 15  1  0  0  0
 15 16  1  0  0  0
 15 17  1  0  0  0
 15 18  1  0  0  0
 16 44  1  0  0  0
 16 45  1  0  0  0
 16 46  1  0  0  0
 17 47  1  0  0  0
 17 48  1  0  0  0
 17 49  1  0  0  0
 18 50  1  0  0  0
 18 51  1  0  0  0
 18 52  1  0  0  0
 19 20  1  0  0  0
 19 21  1  0  0  0
 19 53  1  0  0  0
 20 54  1  0  0  0
 20 55  1  0  0  0
 20 56  1  0  0  0
 21 22  2  0  0  0
 21 23  1  0  0  0
 23 24  1  0  0  0
 24 25  1  0  0  0
 24 26  1  0  0  0
 24 27  1  0  0  0
 25 57  1  0  0  0
 25 58  1  0  0  0
 25 59  1  0  0  0
 26 60  1  0  0  0
 26 61  1  0  0  0
 26 62  1  0  0  0
 27 63  1  0  0  0
 27 64  1  0  0  0
 27 65  1  0  0  0
M  END
