C:\Mis documentos\Gara\Polímeros (Tg)\Base de datos polímeros\026 trimer poly(n-butyl acrylate).hin
 OpenBabel04231221383D

 65 64  0  0  0  0  0  0  0  0999 V2000
   -2.5689   -2.2527   -2.0331 C   0  0  0  0  0
   -1.4782   -1.2026   -2.0993 C   0  0  0  0  0
   -2.0151   -3.6171   -2.3077 C   0  0  0  0  0
   -2.1894   -4.3251   -3.3013 O   0  0  0  0  0
   -1.2351   -4.0958   -1.2934 O   0  0  0  0  0
   -0.6746   -5.4083   -1.4766 C   0  0  0  0  0
    0.1738   -5.6753   -0.2481 C   0  0  0  0  0
    0.8074   -7.0468   -0.3377 C   0  0  0  0  0
    1.6665   -7.3311    0.8673 C   0  0  0  0  0
   -2.0156    0.1741   -1.7224 C   0  0  0  0  0
   -0.9761    1.2477   -2.0192 C   0  0  0  0  0
   -2.4228    0.1713   -0.2693 C   0  0  0  0  0
   -3.5681    0.2252    0.1847 O   0  0  0  0  0
   -1.3783    0.0694    0.6018 O   0  0  0  0  0
   -1.7089    0.0695    2.0037 C   0  0  0  0  0
   -0.3870   -0.0051    2.7433 C   0  0  0  0  0
   -0.6261   -0.0183    4.2378 C   0  0  0  0  0
    0.6729   -0.0971    4.9976 C   0  0  0  0  0
   -1.5820    2.6225   -2.2775 C   0  0  0  0  0
   -0.7414    3.4016   -3.2730 C   0  0  0  0  0
   -1.6625    3.4194   -0.9991 C   0  0  0  0  0
   -2.8894    3.9889   -0.8124 O   0  0  0  0  0
   -3.0650    4.7636    0.3875 C   0  0  0  0  0
   -4.5267    5.1668    0.4161 C   0  0  0  0  0
   -4.8173    5.9887    1.6533 C   0  0  0  0  0
   -6.2670    6.3957    1.7108 C   0  0  0  0  0
   -0.7851    3.6188   -0.1569 O   0  0  0  0  0
   -3.0434   -2.2506   -1.0144 H   0  0  0  0  0
   -3.3667   -2.0410   -2.7938 H   0  0  0  0  0
   -0.6413   -1.4797   -1.4038 H   0  0  0  0  0
   -1.0630   -1.1628   -3.1408 H   0  0  0  0  0
   -1.5125   -6.1462   -1.5763 H   0  0  0  0  0
   -0.0644   -5.4153   -2.4168 H   0  0  0  0  0
    0.9669   -4.8875   -0.1628 H   0  0  0  0  0
   -0.4649   -5.6033    0.6705 H   0  0  0  0  0
    0.0042   -7.8262   -0.4211 H   0  0  0  0  0
    1.4301   -7.1125   -1.2691 H   0  0  0  0  0
    2.1232   -8.3469    0.7856 H   0  0  0  0  0
    2.4887   -6.5799    0.9518 H   0  0  0  0  0
    1.0586   -7.2913    1.8035 H   0  0  0  0  0
   -2.9522    0.3749   -2.3188 H   0  0  0  0  0
   -0.2400    1.3088   -1.1723 H   0  0  0  0  0
   -0.4036    0.9407   -2.9364 H   0  0  0  0  0
   -2.2701    1.0098    2.2430 H   0  0  0  0  0
   -2.3616   -0.8160    2.2182 H   0  0  0  0  0
    0.1648   -0.9297    2.4314 H   0  0  0  0  0
    0.2492    0.8739    2.4603 H   0  0  0  0  0
   -1.1821    0.9097    4.5366 H   0  0  0  0  0
   -1.2745   -0.8939    4.5068 H   0  0  0  0  0
    0.4779   -0.1039    6.0971 H   0  0  0  0  0
    1.2296   -1.0282    4.7318 H   0  0  0  0  0
    1.3228    0.7794    4.7592 H   0  0  0  0  0
   -2.6249    2.5129   -2.6917 H   0  0  0  0  0
   -0.7105    2.8611   -4.2494 H   0  0  0  0  0
   -1.1810    4.4145   -3.4400 H   0  0  0  0  0
    0.3020    3.5215   -2.8932 H   0  0  0  0  0
   -2.7888    4.1336    1.2728 H   0  0  0  0  0
   -2.3842    5.6526    0.3408 H   0  0  0  0  0
   -4.7713    5.7556   -0.5060 H   0  0  0  0  0
   -5.1679    4.2469    0.4028 H   0  0  0  0  0
   -4.5564    5.3935    2.5684 H   0  0  0  0  0
   -4.1675    6.9038    1.6574 H   0  0  0  0  0
   -6.4628    7.0003    2.6291 H   0  0  0  0  0
   -6.5402    7.0097    0.8187 H   0  0  0  0  0
   -6.9285    5.4960    1.7324 H   0  0  0  0  0
  1  2  1  0  0  0
  1  3  1  0  0  0
  1 28  1  0  0  0
  1 29  1  0  0  0
  2 10  1  0  0  0
  2 30  1  0  0  0
  2 31  1  0  0  0
  3  4  2  0  0  0
  3  5  1  0  0  0
  5  6  1  0  0  0
  6  7  1  0  0  0
  6 32  1  0  0  0
  6 33  1  0  0  0
  7  8  1  0  0  0
  7 34  1  0  0  0
  7 35  1  0  0  0
  8  9  1  0  0  0
  8 36  1  0  0  0
  8 37  1  0  0  0
  9 38  1  0  0  0
  9 39  1  0  0  0
  9 40  1  0  0  0
 10 11  1  0  0  0
 10 12  1  0  0  0
 10 41  1  0  0  0
 11 19  1  0  0  0
 11 42  1  0  0  0
 11 43  1  0  0  0
 12 13  2  0  0  0
 12 14  1  0  0  0
 14 15  1  0  0  0
 15 16  1  0  0  0
 15 44  1  0  0  0
 15 45  1  0  0  0
 16 17  1  0  0  0
 16 46  1  0  0  0
 16 47  1  0  0  0
 17 18  1  0  0  0
 17 48  1  0  0  0
 17 49  1  0  0  0
 18 50  1  0  0  0
 18 51  1  0  0  0
 18 52  1  0  0  0
 19 20  1  0  0  0
 19 21  1  0  0  0
 19 53  1  0  0  0
 20 54  1  0  0  0
 20 55  1  0  0  0
 20 56  1  0  0  0
 21 22  1  0  0  0
 21 27  2  0  0  0
 22 23  1  0  0  0
 23 24  1  0  0  0
 23 57  1  0  0  0
 23 58  1  0  0  0
 24 25  1  0  0  0
 24 59  1  0  0  0
 24 60  1  0  0  0
 25 26  1  0  0  0
 25 61  1  0  0  0
 25 62  1  0  0  0
 26 63  1  0  0  0
 26 64  1  0  0  0
 26 65  1  0  0  0
M  END
