C:\Mis documentos\Gara\Polímeros (Tg)\Base de datos polímeros\027 trimer poly(vinyl hexyl ether).hin
 OpenBabel04231221383D

 77 76  0  0  0  0  0  0  0  0999 V2000
   -3.0233   -4.0899   -1.5324 C   0  0  0  0  0
   -3.0117   -2.6913   -0.9413 C   0  0  0  0  0
   -3.7586   -2.6734    0.2806 O   0  0  0  0  0
   -5.1676   -2.5516    0.1035 C   0  0  0  0  0
   -5.7176   -2.0775    1.4395 C   0  0  0  0  0
   -7.1088   -1.5046    1.2872 C   0  0  0  0  0
   -7.6011   -0.9344    2.6008 C   0  0  0  0  0
   -8.9595   -0.2837    2.4491 C   0  0  0  0  0
   -9.4271    0.3246    3.7462 C   0  0  0  0  0
   -1.5965   -2.2527   -0.5657 C   0  0  0  0  0
   -1.3072   -0.7827   -0.8664 C   0  0  0  0  0
   -1.6360    0.0354    0.2621 O   0  0  0  0  0
   -2.9796    0.5131    0.2417 C   0  0  0  0  0
   -3.2564    1.1220    1.6053 C   0  0  0  0  0
   -4.6547    1.6992    1.6432 C   0  0  0  0  0
   -5.0179    2.1743    3.0336 C   0  0  0  0  0
   -6.4023    2.7874    3.0587 C   0  0  0  0  0
   -6.8122    3.1742    4.4561 C   0  0  0  0  0
    0.1884   -0.5857   -1.1095 C   0  0  0  0  0
    0.4862    0.8512   -1.4964 C   0  0  0  0  0
    1.8915    0.9261   -1.7306 O   0  0  0  0  0
    2.3235    2.2627   -1.9760 C   0  0  0  0  0
    3.8270    2.2039   -2.1793 C   0  0  0  0  0
    4.3821    3.5896   -2.4233 C   0  0  0  0  0
    5.8830    3.5495   -2.6155 C   0  0  0  0  0
    6.4445    4.9350   -2.8549 C   0  0  0  0  0
    7.9394    4.9009   -3.0408 C   0  0  0  0  0
   -2.4439   -4.1079   -2.4853 H   0  0  0  0  0
   -2.5693   -4.8158   -0.8164 H   0  0  0  0  0
   -4.0725   -4.4094   -1.7404 H   0  0  0  0  0
   -3.4678   -1.9707   -1.6781 H   0  0  0  0  0
   -5.4012   -1.8118   -0.7088 H   0  0  0  0  0
   -5.5900   -3.5500   -0.1839 H   0  0  0  0  0
   -5.7269   -2.9323    2.1635 H   0  0  0  0  0
   -5.0258   -1.2961    1.8579 H   0  0  0  0  0
   -7.1009   -0.6944    0.5099 H   0  0  0  0  0
   -7.8129   -2.3009    0.9300 H   0  0  0  0  0
   -7.6569   -1.7502    3.3684 H   0  0  0  0  0
   -6.8633   -0.1742    2.9768 H   0  0  0  0  0
   -8.9053    0.5130    1.6601 H   0  0  0  0  0
   -9.7032   -1.0469    2.0983 H   0  0  0  0  0
  -10.4395    0.7784    3.6195 H   0  0  0  0  0
   -9.4858   -0.4510    4.5476 H   0  0  0  0  0
   -8.7209    1.1246    4.0829 H   0  0  0  0  0
   -0.8647   -2.8887   -1.1281 H   0  0  0  0  0
   -1.4391   -2.4321    0.5317 H   0  0  0  0  0
   -1.8846   -0.4418   -1.7710 H   0  0  0  0  0
   -3.0819    1.2811   -0.5715 H   0  0  0  0  0
   -3.6881   -0.3355    0.0414 H   0  0  0  0  0
   -3.1425    0.3289    2.3901 H   0  0  0  0  0
   -2.4992    1.9185    1.8235 H   0  0  0  0  0
   -4.7306    2.5533    0.9200 H   0  0  0  0  0
   -5.3939    0.9181    1.3150 H   0  0  0  0  0
   -4.9789    1.3077    3.7459 H   0  0  0  0  0
   -4.2651    2.9273    3.3858 H   0  0  0  0  0
   -6.4228    3.6913    2.3944 H   0  0  0  0  0
   -7.1442    2.0532    2.6414 H   0  0  0  0  0
   -7.8345    3.6236    4.4499 H   0  0  0  0  0
   -6.8264    2.2786    5.1240 H   0  0  0  0  0
   -6.1000    3.9198    4.8850 H   0  0  0  0  0
    0.5241   -1.2729   -1.9274 H   0  0  0  0  0
    0.7579   -0.8457   -0.1804 H   0  0  0  0  0
   -0.0613    1.1405   -2.4332 H   0  0  0  0  0
    0.1923    1.5500   -0.6684 H   0  0  0  0  0
    1.8082    2.6624   -2.8900 H   0  0  0  0  0
    2.0618    2.9124   -1.0983 H   0  0  0  0  0
    4.3051    1.7481   -1.2734 H   0  0  0  0  0
    4.0583    1.5343   -3.0480 H   0  0  0  0  0
    3.8984    4.0361   -3.3319 H   0  0  0  0  0
    4.1324    4.2548   -1.5547 H   0  0  0  0  0
    6.3663    3.0999   -1.7082 H   0  0  0  0  0
    6.1334    2.8869   -3.4856 H   0  0  0  0  0
    5.9616    5.3819   -3.7638 H   0  0  0  0  0
    6.1879    5.5972   -1.9860 H   0  0  0  0  0
    8.3325    5.9313   -3.2161 H   0  0  0  0  0
    8.4401    4.4818   -2.1346 H   0  0  0  0  0
    8.2135    4.2648   -3.9171 H   0  0  0  0  0
  1  2  1  0  0  0
  1 28  1  0  0  0
  1 29  1  0  0  0
  1 30  1  0  0  0
  2  3  1  0  0  0
  2 10  1  0  0  0
  2 31  1  0  0  0
  3  4  1  0  0  0
  4  5  1  0  0  0
  4 32  1  0  0  0
  4 33  1  0  0  0
  5  6  1  0  0  0
  5 34  1  0  0  0
  5 35  1  0  0  0
  6  7  1  0  0  0
  6 36  1  0  0  0
  6 37  1  0  0  0
  7  8  1  0  0  0
  7 38  1  0  0  0
  7 39  1  0  0  0
  8  9  1  0  0  0
  8 40  1  0  0  0
  8 41  1  0  0  0
  9 42  1  0  0  0
  9 43  1  0  0  0
  9 44  1  0  0  0
 10 11  1  0  0  0
 10 45  1  0  0  0
 10 46  1  0  0  0
 11 12  1  0  0  0
 11 19  1  0  0  0
 11 47  1  0  0  0
 12 13  1  0  0  0
 13 14  1  0  0  0
 13 48  1  0  0  0
 13 49  1  0  0  0
 14 15  1  0  0  0
 14 50  1  0  0  0
 14 51  1  0  0  0
 15 16  1  0  0  0
 15 52  1  0  0  0
 15 53  1  0  0  0
 16 17  1  0  0  0
 16 54  1  0  0  0
 16 55  1  0  0  0
 17 18  1  0  0  0
 17 56  1  0  0  0
 17 57  1  0  0  0
 18 58  1  0  0  0
 18 59  1  0  0  0
 18 60  1  0  0  0
 19 20  1  0  0  0
 19 61  1  0  0  0
 19 62  1  0  0  0
 20 21  1  0  0  0
 20 63  1  0  0  0
 20 64  1  0  0  0
 21 22  1  0  0  0
 22 23  1  0  0  0
 22 65  1  0  0  0
 22 66  1  0  0  0
 23 24  1  0  0  0
 23 67  1  0  0  0
 23 68  1  0  0  0
 24 25  1  0  0  0
 24 69  1  0  0  0
 24 70  1  0  0  0
 25 26  1  0  0  0
 25 71  1  0  0  0
 25 72  1  0  0  0
 26 27  1  0  0  0
 26 73  1  0  0  0
 26 74  1  0  0  0
 27 75  1  0  0  0
 27 76  1  0  0  0
 27 77  1  0  0  0
M  END
