C:\Mis documentos\Gara\Polímeros (Tg)\Base de datos polímeros\028 trimer poly(1,1-dimethylethylene).hin
 OpenBabel04231221393D

 38 37  0  0  0  0  0  0  0  0999 V2000
   -3.1793   -1.5322    0.0837 C   0  0  0  0  0
   -2.6853   -0.1471   -0.3119 C   0  0  0  0  0
   -4.6866   -1.5849   -0.1065 C   0  0  0  0  0
   -2.5339   -2.6514   -0.7051 C   0  0  0  0  0
   -1.2364    0.2429    0.0497 C   0  0  0  0  0
   -1.2458    1.7767    0.1840 C   0  0  0  0  0
   -0.3041   -0.2200   -1.0559 C   0  0  0  0  0
   -0.8313   -0.4007    1.3660 C   0  0  0  0  0
    0.0290    2.6245    0.1187 C   0  0  0  0  0
   -0.3771    4.0392    0.5504 C   0  0  0  0  0
    0.5820    2.7185   -1.2974 C   0  0  0  0  0
    1.1237    2.1514    1.0583 C   0  0  0  0  0
   -2.9683   -1.6988    1.1781 H   0  0  0  0  0
   -2.8128   -0.0247   -1.4205 H   0  0  0  0  0
   -3.3756    0.5915    0.1833 H   0  0  0  0  0
   -5.0814   -2.5810    0.2073 H   0  0  0  0  0
   -5.1879   -0.7980    0.5066 H   0  0  0  0  0
   -4.9510   -1.4210   -1.1786 H   0  0  0  0  0
   -3.1001   -3.6036   -0.5575 H   0  0  0  0  0
   -2.5256   -2.4137   -1.7960 H   0  0  0  0  0
   -1.4834   -2.8211   -0.3665 H   0  0  0  0  0
   -1.9198    2.1775   -0.6248 H   0  0  0  0  0
   -1.7410    2.0024    1.1695 H   0  0  0  0  0
   -0.4718   -1.2991   -1.2872 H   0  0  0  0  0
   -0.4862    0.3694   -1.9872 H   0  0  0  0  0
    0.7621   -0.0950   -0.7489 H   0  0  0  0  0
   -0.7835   -1.5116    1.2556 H   0  0  0  0  0
    0.1747   -0.0480    1.6931 H   0  0  0  0  0
   -1.5698   -0.1495    2.1652 H   0  0  0  0  0
   -0.7602    4.0319    1.5985 H   0  0  0  0  0
    0.5017    4.7255    0.5005 H   0  0  0  0  0
   -1.1757    4.4337   -0.1216 H   0  0  0  0  0
    1.1642    1.8060   -1.5671 H   0  0  0  0  0
   -0.2458    2.8473   -2.0349 H   0  0  0  0  0
    1.2687    3.5966   -1.3810 H   0  0  0  0  0
    1.5485    1.1760    0.7207 H   0  0  0  0  0
    1.9538    2.8997    1.0802 H   0  0  0  0  0
    0.7244    2.0371    2.0946 H   0  0  0  0  0
  1  2  1  0  0  0
  1  3  1  0  0  0
  1  4  1  0  0  0
  1 13  1  0  0  0
  2  5  1  0  0  0
  2 14  1  0  0  0
  2 15  1  0  0  0
  3 16  1  0  0  0
  3 17  1  0  0  0
  3 18  1  0  0  0
  4 19  1  0  0  0
  4 20  1  0  0  0
  4 21  1  0  0  0
  5  6  1  0  0  0
  5  7  1  0  0  0
  5  8  1  0  0  0
  6  9  1  0  0  0
  6 22  1  0  0  0
  6 23  1  0  0  0
  7 24  1  0  0  0
  7 25  1  0  0  0
  7 26  1  0  0  0
  8 27  1  0  0  0
  8 28  1  0  0  0
  8 29  1  0  0  0
  9 10  1  0  0  0
  9 11  1  0  0  0
  9 12  1  0  0  0
 10 30  1  0  0  0
 10 31  1  0  0  0
 10 32  1  0  0  0
 11 33  1  0  0  0
 11 34  1  0  0  0
 11 35  1  0  0  0
 12 36  1  0  0  0
 12 37  1  0  0  0
 12 38  1  0  0  0
M  END
