C:\Mis documentos\Gara\Polímeros (Tg)\Base de datos polímeros\029 trimer poly(1,1-dichloroethylene).hin
 OpenBabel04231221393D

 20 19  0  0  0  0  0  0  0  0999 V2000
   -3.6751   -1.0062    0.1315 C   0  0  0  0  0
   -3.4493    0.4888   -0.0194 C   0  0  0  0  0
   -5.2825   -1.3178    0.7778 Cl  0  0  0  0  0
   -3.4686   -1.8455   -1.3971 Cl  0  0  0  0  0
   -2.0394    0.9464    0.3762 C   0  0  0  0  0
   -1.9735    2.4630    0.1853 C   0  0  0  0  0
   -0.8412    0.0930   -0.5886 Cl  0  0  0  0  0
   -1.7809    0.5546    2.0929 Cl  0  0  0  0  0
   -0.6174    3.1587    0.0933 C   0  0  0  0  0
   -0.8054    4.6447    0.3662 C   0  0  0  0  0
    0.0441    2.9864   -1.5482 Cl  0  0  0  0  0
    0.5566    2.5218    1.2467 Cl  0  0  0  0  0
   -2.9562   -1.4773    0.8482 H   0  0  0  0  0
   -3.6408    0.7967   -1.0840 H   0  0  0  0  0
   -4.1821    1.0495    0.6249 H   0  0  0  0  0
   -2.5360    2.7172   -0.7576 H   0  0  0  0  0
   -2.5372    2.9298    1.0424 H   0  0  0  0  0
   -1.1611    4.8013    1.4140 H   0  0  0  0  0
    0.1581    5.1942    0.2322 H   0  0  0  0  0
   -1.5612    5.0696   -0.3385 H   0  0  0  0  0
  1  2  1  0  0  0
  1  3  1  0  0  0
  1  4  1  0  0  0
  1 13  1  0  0  0
  2  5  1  0  0  0
  2 14  1  0  0  0
  2 15  1  0  0  0
  5  6  1  0  0  0
  5  7  1  0  0  0
  5  8  1  0  0  0
  6  9  1  0  0  0
  6 16  1  0  0  0
  6 17  1  0  0  0
  9 10  1  0  0  0
  9 11  1  0  0  0
  9 12  1  0  0  0
 10 18  1  0  0  0
 10 19  1  0  0  0
 10 20  1  0  0  0
M  END
