C:\Mis documentos\Gara\Polímeros (Tg)\Base de datos polímeros\030 trimer poly(1,1-difluoroethylene).hin
 OpenBabel04231221403D

 20 19  0  0  0  0  0  0  0  0999 V2000
   -3.5531   -1.5120    0.0541 C   0  0  0  0  0
   -3.4117    0.0275    0.0367 C   0  0  0  0  0
   -4.5848   -1.9187    0.8718 F   0  0  0  0  0
   -3.9311   -2.0112   -1.1723 F   0  0  0  0  0
   -1.9323    0.4750    0.1606 C   0  0  0  0  0
   -1.9068    2.0210    0.0799 C   0  0  0  0  0
   -1.1396   -0.1120   -0.8055 F   0  0  0  0  0
   -1.3589    0.0033    1.3257 F   0  0  0  0  0
   -0.5022    2.6629    0.2023 C   0  0  0  0  0
   -0.6632    4.1949    0.1156 C   0  0  0  0  0
    0.3672    2.1944   -0.7637 F   0  0  0  0  0
    0.1378    2.2915    1.3691 F   0  0  0  0  0
   -2.5822   -1.9910    0.3863 H   0  0  0  0  0
   -3.8279    0.4290   -0.9207 H   0  0  0  0  0
   -3.9845    0.4569    0.8965 H   0  0  0  0  0
   -2.3374    2.3231   -0.9072 H   0  0  0  0  0
   -2.5413    2.4214    0.9094 H   0  0  0  0  0
   -1.3058    4.5475    0.9543 H   0  0  0  0  0
    0.3391    4.6787    0.1915 H   0  0  0  0  0
   -1.1281    4.4639   -0.8602 H   0  0  0  0  0
  1  2  1  0  0  0
  1  3  1  0  0  0
  1  4  1  0  0  0
  1 13  1  0  0  0
  2  5  1  0  0  0
  2 14  1  0  0  0
  2 15  1  0  0  0
  5  6  1  0  0  0
  5  7  1  0  0  0
  5  8  1  0  0  0
  6  9  1  0  0  0
  6 16  1  0  0  0
  6 17  1  0  0  0
  9 10  1  0  0  0
  9 11  1  0  0  0
  9 12  1  0  0  0
 10 18  1  0  0  0
 10 19  1  0  0  0
 10 20  1  0  0  0
M  END
