C:\Mis documentos\Gara\Polímeros (Tg)\Base de datos polímeros\031trimer  poly(a-methylstyrene).hin
 OpenBabel04231221403D

 59 61  0  0  0  0  0  0  0  0999 V2000
   -1.0414   -3.7416   -0.1169 C   0  0  0  0  0
   -1.0569   -2.2349   -0.4283 C   0  0  0  0  0
   -1.7680   -2.0711   -1.7641 C   0  0  0  0  0
    0.3787   -1.7790   -0.4763 C   0  0  0  0  0
    0.9777   -1.3300   -1.6602 C   0  0  0  0  0
    2.3227   -0.9601   -1.6830 C   0  0  0  0  0
    3.0940   -1.0354   -0.5254 C   0  0  0  0  0
    2.5113   -1.4873    0.6583 C   0  0  0  0  0
    1.1691   -1.8584    0.6815 C   0  0  0  0  0
   -1.8497   -1.5690    0.7070 C   0  0  0  0  0
   -2.1874   -0.0645    0.6817 C   0  0  0  0  0
   -1.0424    0.7458    0.0999 C   0  0  0  0  0
   -2.4699    0.3266    2.1188 C   0  0  0  0  0
   -1.7468    1.3249    2.7811 C   0  0  0  0  0
   -2.0306    1.6466    4.1092 C   0  0  0  0  0
   -3.0398    0.9769    4.7967 C   0  0  0  0  0
   -3.7682   -0.0198    4.1469 C   0  0  0  0  0
   -3.4859   -0.3408    2.8218 C   0  0  0  0  0
   -3.4558    0.1771   -0.1542 C   0  0  0  0  0
   -3.9944    1.6067   -0.0714 C   0  0  0  0  0
   -5.4496    1.6057    0.3646 C   0  0  0  0  0
   -3.8452    2.3287   -1.3754 C   0  0  0  0  0
   -3.0689    3.4913   -1.4500 C   0  0  0  0  0
   -2.9366    4.1749   -2.6581 C   0  0  0  0  0
   -3.5770    3.7043   -3.8036 C   0  0  0  0  0
   -4.3502    2.5451   -3.7375 C   0  0  0  0  0
   -4.4832    1.8607   -2.5312 C   0  0  0  0  0
   -0.6051   -3.9287    0.8928 H   0  0  0  0  0
   -2.0804   -4.1482   -0.1403 H   0  0  0  0  0
   -0.4283   -4.2821   -0.8765 H   0  0  0  0  0
   -1.6909   -1.0255   -2.1462 H   0  0  0  0  0
   -1.3234   -2.7577   -2.5255 H   0  0  0  0  0
   -2.8492   -2.3287   -1.6484 H   0  0  0  0  0
    0.3984   -1.2614   -2.5931 H   0  0  0  0  0
    2.7740   -0.6086   -2.6226 H   0  0  0  0  0
    4.1536   -0.7435   -0.5447 H   0  0  0  0  0
    3.1125   -1.5543    1.5769 H   0  0  0  0  0
    0.7305   -2.2219    1.6233 H   0  0  0  0  0
   -1.2824   -1.7630    1.6586 H   0  0  0  0  0
   -2.8229   -2.1280    0.7890 H   0  0  0  0  0
   -1.2880    1.8361    0.1047 H   0  0  0  0  0
   -0.1054    0.5726    0.6831 H   0  0  0  0  0
   -0.8526    0.4410   -0.9585 H   0  0  0  0  0
   -0.9413    1.8721    2.2688 H   0  0  0  0  0
   -1.4510    2.4341    4.6132 H   0  0  0  0  0
   -3.2613    1.2309    5.8430 H   0  0  0  0  0
   -4.5674   -0.5538    4.6814 H   0  0  0  0  0
   -4.0697   -1.1282    2.3214 H   0  0  0  0  0
   -4.2507   -0.5370    0.1907 H   0  0  0  0  0
   -3.2333   -0.0744   -1.2236 H   0  0  0  0  0
   -3.4088    2.1672    0.7158 H   0  0  0  0  0
   -5.8302    2.6521    0.4435 H   0  0  0  0  0
   -6.0836    1.0526   -0.3692 H   0  0  0  0  0
   -5.5446    1.1134    1.3631 H   0  0  0  0  0
   -2.5589    3.8681   -0.5505 H   0  0  0  0  0
   -2.3252    5.0878   -2.7058 H   0  0  0  0  0
   -3.4735    4.2446   -4.7554 H   0  0  0  0  0
   -4.8573    2.1704   -4.6387 H   0  0  0  0  0
   -5.0942    0.9468   -2.4821 H   0  0  0  0  0
  1  2  1  0  0  0
  1 28  1  0  0  0
  1 29  1  0  0  0
  1 30  1  0  0  0
  2  3  1  0  0  0
  2  4  1  0  0  0
  2 10  1  0  0  0
  3 31  1  0  0  0
  3 32  1  0  0  0
  3 33  1  0  0  0
  4  5  2  0  0  0
  4  9  1  0  0  0
  5  6  1  0  0  0
  5 34  1  0  0  0
  6  7  2  0  0  0
  6 35  1  0  0  0
  7  8  1  0  0  0
  7 36  1  0  0  0
  8  9  2  0  0  0
  8 37  1  0  0  0
  9 38  1  0  0  0
 10 11  1  0  0  0
 10 39  1  0  0  0
 10 40  1  0  0  0
 11 12  1  0  0  0
 11 13  1  0  0  0
 11 19  1  0  0  0
 12 41  1  0  0  0
 12 42  1  0  0  0
 12 43  1  0  0  0
 13 14  2  0  0  0
 13 18  1  0  0  0
 14 15  1  0  0  0
 14 44  1  0  0  0
 15 16  2  0  0  0
 15 45  1  0  0  0
 16 17  1  0  0  0
 16 46  1  0  0  0
 17 18  2  0  0  0
 17 47  1  0  0  0
 18 48  1  0  0  0
 19 20  1  0  0  0
 19 49  1  0  0  0
 19 50  1  0  0  0
 20 21  1  0  0  0
 20 22  1  0  0  0
 20 51  1  0  0  0
 21 52  1  0  0  0
 21 53  1  0  0  0
 21 54  1  0  0  0
 22 23  2  0  0  0
 22 27  1  0  0  0
 23 24  1  0  0  0
 23 55  1  0  0  0
 24 25  2  0  0  0
 24 56  1  0  0  0
 25 26  1  0  0  0
 25 57  1  0  0  0
 26 27  2  0  0  0
 26 58  1  0  0  0
 27 59  1  0  0  0
M  END
