C:\Mis documentos\Gara\Polímeros (Tg)\Base de datos polímeros\032 trimer poly(methyl methylacrylate).hin
 OpenBabel04231221413D

 47 46  0  0  0  0  0  0  0  0999 V2000
   -2.0477   -3.6883    0.3587 C   0  0  0  0  0
   -2.3483   -2.2578   -0.1031 C   0  0  0  0  0
   -3.1334   -2.3363   -1.4050 C   0  0  0  0  0
   -3.1660   -1.6117    0.9935 C   0  0  0  0  0
   -4.3436   -1.0539    0.5731 O   0  0  0  0  0
   -5.1061   -0.3577    1.5612 C   0  0  0  0  0
   -2.9102   -1.5613    2.1994 O   0  0  0  0  0
   -1.0050   -1.5450   -0.3059 C   0  0  0  0  0
   -0.9163   -0.0114   -0.2457 C   0  0  0  0  0
   -2.0123    0.6808   -1.0304 C   0  0  0  0  0
   -0.9206    0.4079    1.2140 C   0  0  0  0  0
   -1.9896    1.1748    1.5860 O   0  0  0  0  0
   -2.1055    1.4727    2.9805 C   0  0  0  0  0
   -0.0674    0.1473    2.0651 O   0  0  0  0  0
    0.4612    0.3672   -0.8235 C   0  0  0  0  0
    0.7703    1.8575   -0.7729 C   0  0  0  0  0
    2.2662    2.0921   -0.6660 C   0  0  0  0  0
    0.2646    2.5478   -2.0143 C   0  0  0  0  0
   -0.3118    3.7603   -1.7473 O   0  0  0  0  0
   -0.7945    4.5049   -2.8658 C   0  0  0  0  0
    0.3156    2.1753   -3.1880 O   0  0  0  0  0
   -1.5732   -3.6773    1.3699 H   0  0  0  0  0
   -2.9921   -4.2805    0.4121 H   0  0  0  0  0
   -1.3556   -4.1784   -0.3663 H   0  0  0  0  0
   -3.3823   -1.3184   -1.7873 H   0  0  0  0  0
   -2.5346   -2.8782   -2.1758 H   0  0  0  0  0
   -4.0909   -2.8872   -1.2383 H   0  0  0  0  0
   -5.9707    0.0545    0.9858 H   0  0  0  0  0
   -5.4412   -1.0693    2.3531 H   0  0  0  0  0
   -4.4822    0.4553    2.0106 H   0  0  0  0  0
   -0.6259   -1.8642   -1.3154 H   0  0  0  0  0
   -0.2849   -1.9377    0.4666 H   0  0  0  0  0
   -1.8808    1.7905   -0.9757 H   0  0  0  0  0
   -1.9705    0.3662   -2.1011 H   0  0  0  0  0
   -3.0165    0.4344   -0.6052 H   0  0  0  0  0
   -1.1831    1.9857    3.3433 H   0  0  0  0  0
   -2.9960    2.1462    3.0312 H   0  0  0  0  0
   -2.2729    0.5221    3.5445 H   0  0  0  0  0
    0.5143    0.0136   -1.8876 H   0  0  0  0  0
    1.2453   -0.1801   -0.2329 H   0  0  0  0  0
    0.2641    2.3212    0.1226 H   0  0  0  0  0
    2.4849    3.1871   -0.6615 H   0  0  0  0  0
    2.6504    1.6465    0.2833 H   0  0  0  0  0
    2.7991    1.6217   -1.5272 H   0  0  0  0  0
   -1.1965    5.4414   -2.4069 H   0  0  0  0  0
    0.0436    4.7208   -3.5711 H   0  0  0  0  0
   -1.5951    3.9283   -3.3886 H   0  0  0  0  0
  1  2  1  0  0  0
  1 22  1  0  0  0
  1 23  1  0  0  0
  1 24  1  0  0  0
  2  3  1  0  0  0
  2  4  1  0  0  0
  2  8  1  0  0  0
  3 25  1  0  0  0
  3 26  1  0  0  0
  3 27  1  0  0  0
  4  5  1  0  0  0
  4  7  2  0  0  0
  5  6  1  0  0  0
  6 28  1  0  0  0
  6 29  1  0  0  0
  6 30  1  0  0  0
  8  9  1  0  0  0
  8 31  1  0  0  0
  8 32  1  0  0  0
  9 10  1  0  0  0
  9 11  1  0  0  0
  9 15  1  0  0  0
 10 33  1  0  0  0
 10 34  1  0  0  0
 10 35  1  0  0  0
 11 12  1  0  0  0
 11 14  2  0  0  0
 12 13  1  0  0  0
 13 36  1  0  0  0
 13 37  1  0  0  0
 13 38  1  0  0  0
 15 16  1  0  0  0
 15 39  1  0  0  0
 15 40  1  0  0  0
 16 17  1  0  0  0
 16 18  1  0  0  0
 16 41  1  0  0  0
 17 42  1  0  0  0
 17 43  1  0  0  0
 17 44  1  0  0  0
 18 19  1  0  0  0
 18 21  2  0  0  0
 19 20  1  0  0  0
 20 45  1  0  0  0
 20 46  1  0  0  0
 20 47  1  0  0  0
M  END
