C:\Mis documentos\Gara\Polímeros (Tg)\Base de datos polímeros\033 trimer poly(ethyl methylacrylate).hin
 OpenBabel04231221413D

 56 55  0  0  0  0  0  0  0  0999 V2000
   -1.4430   -3.7422   -0.0356 C   0  0  0  0  0
   -1.7952   -2.2642   -0.2328 C   0  0  0  0  0
   -2.6653   -2.1480   -1.4794 C   0  0  0  0  0
   -2.5909   -1.8004    0.9703 C   0  0  0  0  0
   -3.6333   -1.1417    0.9864 O   0  0  0  0  0
   -2.0579   -2.2033    2.1626 O   0  0  0  0  0
   -2.7216   -1.7937    3.3674 C   0  0  0  0  0
   -3.8964   -2.6899    3.6717 C   0  0  0  0  0
   -0.4721   -1.5035   -0.3719 C   0  0  0  0  0
   -0.4322    0.0320   -0.3065 C   0  0  0  0  0
   -1.6155    0.6912   -0.9856 C   0  0  0  0  0
   -0.3255    0.4521    1.1505 C   0  0  0  0  0
   -1.1697    1.4613    1.5120 O   0  0  0  0  0
   -1.1246    1.8763    2.8904 C   0  0  0  0  0
   -2.1267    2.9965    3.0246 C   0  0  0  0  0
    0.8814    0.4642   -0.9888 C   0  0  0  0  0
    1.1555    1.9617   -0.9358 C   0  0  0  0  0
    2.6428    2.2323   -0.8052 C   0  0  0  0  0
    0.6321    2.6744   -2.1575 C   0  0  0  0  0
   -0.1101    3.6580   -2.1939 O   0  0  0  0  0
    1.0707    2.1519   -3.3423 O   0  0  0  0  0
    0.6186    2.8107   -4.5401 C   0  0  0  0  0
    1.2110    2.0414   -5.6952 C   0  0  0  0  0
    0.4491    0.0087    2.0029 O   0  0  0  0  0
   -0.8087   -3.8744    0.8740 H   0  0  0  0  0
   -2.3735   -4.3450    0.0914 H   0  0  0  0  0
   -0.8883   -4.1171   -0.9281 H   0  0  0  0  0
   -3.2673   -1.2074   -1.4683 H   0  0  0  0  0
   -2.0281   -2.1643   -2.3952 H   0  0  0  0  0
   -3.3798   -3.0061   -1.5274 H   0  0  0  0  0
   -1.9114   -1.8934    4.1397 H   0  0  0  0  0
   -3.0424   -0.7225    3.2783 H   0  0  0  0  0
   -4.3335   -2.4093    4.6594 H   0  0  0  0  0
   -4.6796   -2.5776    2.8829 H   0  0  0  0  0
   -3.5772   -3.7588    3.7074 H   0  0  0  0  0
   -0.0408   -1.8116   -1.3643 H   0  0  0  0  0
    0.2225   -1.8832    0.4305 H   0  0  0  0  0
   -1.4791    1.8014   -1.0110 H   0  0  0  0  0
   -1.7101    0.3142   -2.0322 H   0  0  0  0  0
   -2.5578    0.4756   -0.4227 H   0  0  0  0  0
   -1.3877    0.9964    3.5348 H   0  0  0  0  0
   -0.0823    2.2107    3.1327 H   0  0  0  0  0
   -2.1335    3.3530    4.0821 H   0  0  0  0  0
   -1.8578    3.8462    2.3525 H   0  0  0  0  0
   -3.1491    2.6423    2.7493 H   0  0  0  0  0
    0.8549    0.1265   -2.0584 H   0  0  0  0  0
    1.7251   -0.0759   -0.4792 H   0  0  0  0  0
    0.6201    2.4155   -0.0502 H   0  0  0  0  0
    2.8354    3.3320   -0.7827 H   0  0  0  0  0
    3.0287    1.7829    0.1414 H   0  0  0  0  0
    3.1951    1.7891   -1.6687 H   0  0  0  0  0
   -0.5024    2.7976   -4.5569 H   0  0  0  0  0
    0.9719    3.8746   -4.5180 H   0  0  0  0  0
    0.8932    2.5211   -6.6517 H   0  0  0  0  0
    2.3257    2.0427   -5.6378 H   0  0  0  0  0
    0.8602    0.9820   -5.6831 H   0  0  0  0  0
  1  2  1  0  0  0
  1 25  1  0  0  0
  1 26  1  0  0  0
  1 27  1  0  0  0
  2  3  1  0  0  0
  2  4  1  0  0  0
  2  9  1  0  0  0
  3 28  1  0  0  0
  3 29  1  0  0  0
  3 30  1  0  0  0
  4  5  2  0  0  0
  4  6  1  0  0  0
  6  7  1  0  0  0
  7  8  1  0  0  0
  7 31  1  0  0  0
  7 32  1  0  0  0
  8 33  1  0  0  0
  8 34  1  0  0  0
  8 35  1  0  0  0
  9 10  1  0  0  0
  9 36  1  0  0  0
  9 37  1  0  0  0
 10 11  1  0  0  0
 10 12  1  0  0  0
 10 16  1  0  0  0
 11 38  1  0  0  0
 11 39  1  0  0  0
 11 40  1  0  0  0
 12 13  1  0  0  0
 12 24  2  0  0  0
 13 14  1  0  0  0
 14 15  1  0  0  0
 14 41  1  0  0  0
 14 42  1  0  0  0
 15 43  1  0  0  0
 15 44  1  0  0  0
 15 45  1  0  0  0
 16 17  1  0  0  0
 16 46  1  0  0  0
 16 47  1  0  0  0
 17 18  1  0  0  0
 17 19  1  0  0  0
 17 48  1  0  0  0
 18 49  1  0  0  0
 18 50  1  0  0  0
 18 51  1  0  0  0
 19 20  2  0  0  0
 19 21  1  0  0  0
 21 22  1  0  0  0
 22 23  1  0  0  0
 22 52  1  0  0  0
 22 53  1  0  0  0
 23 54  1  0  0  0
 23 55  1  0  0  0
 23 56  1  0  0  0
M  END
