C:\Mis documentos\Gara\Polímeros (Tg)\Base de datos polímeros\034 trimer poly(isopropyl methylacrylate).hin
 OpenBabel04231221413D

 65 64  0  0  0  0  0  0  0  0999 V2000
   -1.8378   -4.1489   -0.5859 C   0  0  0  0  0
   -2.0149   -2.7039   -0.1017 C   0  0  0  0  0
   -3.2634   -2.1341   -0.7455 C   0  0  0  0  0
   -2.1549   -2.7954    1.4106 C   0  0  0  0  0
   -1.2769   -3.1266    2.2105 O   0  0  0  0  0
   -3.4121   -2.5379    1.8734 O   0  0  0  0  0
   -3.6415   -2.6367    3.2990 C   0  0  0  0  0
   -3.4379   -1.2722    3.9249 C   0  0  0  0  0
   -5.0687   -3.1270    3.4491 C   0  0  0  0  0
   -0.7269   -1.9456   -0.4432 C   0  0  0  0  0
   -0.7002   -0.4103   -0.5021 C   0  0  0  0  0
   -1.1800    0.0826   -1.8590 C   0  0  0  0  0
   -1.4959    0.2132    0.6265 C   0  0  0  0  0
   -1.2599    0.1487    1.8358 O   0  0  0  0  0
   -2.5612    0.9601    0.2112 O   0  0  0  0  0
   -3.3756    1.5954    1.2239 C   0  0  0  0  0
   -2.7531    2.9223    1.6065 C   0  0  0  0  0
   -4.7423    1.7651    0.5892 C   0  0  0  0  0
    0.7704    0.0072   -0.2958 C   0  0  0  0  0
    1.0134    1.5068   -0.3893 C   0  0  0  0  0
    2.2333    1.9030    0.4219 C   0  0  0  0  0
    1.2356    1.9244   -1.8251 C   0  0  0  0  0
    1.8731    1.3334   -2.6985 O   0  0  0  0  0
    0.6343    3.1164   -2.1053 O   0  0  0  0  0
    0.7347    3.6986   -3.4176 C   0  0  0  0  0
    2.1626    4.0636   -3.7624 C   0  0  0  0  0
    0.0959    2.8175   -4.4701 C   0  0  0  0  0
   -0.9231   -4.5985   -0.1301 H   0  0  0  0  0
   -2.7250   -4.7603   -0.2950 H   0  0  0  0  0
   -1.7399   -4.1663   -1.6973 H   0  0  0  0  0
   -3.4538   -1.0907   -0.3932 H   0  0  0  0  0
   -3.1536   -2.1381   -1.8566 H   0  0  0  0  0
   -4.1493   -2.7583   -0.4715 H   0  0  0  0  0
   -2.9200   -3.3789    3.7424 H   0  0  0  0  0
   -3.4726   -1.3618    5.0362 H   0  0  0  0  0
   -2.4445   -0.8579    3.6186 H   0  0  0  0  0
   -4.2361   -0.5655    3.5942 H   0  0  0  0  0
   -5.3267   -3.1696    4.5338 H   0  0  0  0  0
   -5.7764   -2.4360    2.9321 H   0  0  0  0  0
   -5.1790   -4.1441    3.0042 H   0  0  0  0  0
   -0.3867   -2.3011   -1.4552 H   0  0  0  0  0
    0.0456   -2.2803    0.3067 H   0  0  0  0  0
   -1.1633    1.2011   -1.8923 H   0  0  0  0  0
   -0.5087   -0.3073   -2.6626 H   0  0  0  0  0
   -2.2257   -0.2492   -2.0578 H   0  0  0  0  0
   -3.4354    0.9168    2.1224 H   0  0  0  0  0
   -3.3971    3.4353    2.3590 H   0  0  0  0  0
   -1.7409    2.7509    2.0469 H   0  0  0  0  0
   -2.6471    3.5789    0.7102 H   0  0  0  0  0
   -5.4341    2.2298    1.3308 H   0  0  0  0  0
   -4.6770    2.4203   -0.3117 H   0  0  0  0  0
   -5.1470    0.7725    0.2776 H   0  0  0  0  0
    1.4004   -0.5219   -1.0594 H   0  0  0  0  0
    1.0898   -0.3402    0.7248 H   0  0  0  0  0
    0.1146    2.0615    0.0083 H   0  0  0  0  0
    2.4217    2.9991    0.3227 H   0  0  0  0  0
    2.0639    1.6644    1.4997 H   0  0  0  0  0
    3.1356    1.3485    0.0680 H   0  0  0  0  0
    0.1201    4.6385   -3.2781 H   0  0  0  0  0
    2.1739    4.6669   -4.7012 H   0  0  0  0  0
    2.6164    4.6646   -2.9387 H   0  0  0  0  0
    2.7778    3.1437   -3.9153 H   0  0  0  0  0
   -0.0451    3.4029   -5.4094 H   0  0  0  0  0
    0.7422    1.9325   -4.6872 H   0  0  0  0  0
   -0.8978    2.4537   -4.1135 H   0  0  0  0  0
  1  2  1  0  0  0
  1 28  1  0  0  0
  1 29  1  0  0  0
  1 30  1  0  0  0
  2  3  1  0  0  0
  2  4  1  0  0  0
  2 10  1  0  0  0
  3 31  1  0  0  0
  3 32  1  0  0  0
  3 33  1  0  0  0
  4  5  2  0  0  0
  4  6  1  0  0  0
  6  7  1  0  0  0
  7  8  1  0  0  0
  7  9  1  0  0  0
  7 34  1  0  0  0
  8 35  1  0  0  0
  8 36  1  0  0  0
  8 37  1  0  0  0
  9 38  1  0  0  0
  9 39  1  0  0  0
  9 40  1  0  0  0
 10 11  1  0  0  0
 10 41  1  0  0  0
 10 42  1  0  0  0
 11 12  1  0  0  0
 11 13  1  0  0  0
 11 19  1  0  0  0
 12 43  1  0  0  0
 12 44  1  0  0  0
 12 45  1  0  0  0
 13 14  2  0  0  0
 13 15  1  0  0  0
 15 16  1  0  0  0
 16 17  1  0  0  0
 16 18  1  0  0  0
 16 46  1  0  0  0
 17 47  1  0  0  0
 17 48  1  0  0  0
 17 49  1  0  0  0
 18 50  1  0  0  0
 18 51  1  0  0  0
 18 52  1  0  0  0
 19 20  1  0  0  0
 19 53  1  0  0  0
 19 54  1  0  0  0
 20 21  1  0  0  0
 20 22  1  0  0  0
 20 55  1  0  0  0
 21 56  1  0  0  0
 21 57  1  0  0  0
 21 58  1  0  0  0
 22 23  2  0  0  0
 22 24  1  0  0  0
 24 25  1  0  0  0
 25 26  1  0  0  0
 25 27  1  0  0  0
 25 59  1  0  0  0
 26 60  1  0  0  0
 26 61  1  0  0  0
 26 62  1  0  0  0
 27 63  1  0  0  0
 27 64  1  0  0  0
 27 65  1  0  0  0
M  END
