C:\Mis documentos\Gara\Polímeros (Tg)\Base de datos polímeros\035 trimer poly(ethyl chloroacrylate).hin
 OpenBabel04231221423D

 47 46  0  0  0  0  0  0  0  0999 V2000
   -4.2018    5.3242    7.4966 C   0  0  0  0  0
   -4.6881    6.5733    8.2111 C   0  0  0  0  0
   -5.4923    6.0762    9.7074 Cl  0  0  0  0  0
   -3.8291    5.5425    6.0604 C   0  0  0  0  0
   -2.8986    5.0146    5.4485 O   0  0  0  0  0
   -4.6634    6.3899    5.3919 O   0  0  0  0  0
   -4.3080    6.7236    4.0342 C   0  0  0  0  0
   -5.5329    7.3582    3.4227 C   0  0  0  0  0
   -3.6077    7.6157    8.5415 C   0  0  0  0  0
   -3.4617    8.6143    7.3923 C   0  0  0  0  0
   -4.9589    9.5495    7.2337 Cl  0  0  0  0  0
   -2.3134    6.9275    8.9032 C   0  0  0  0  0
   -1.9456    6.5805   10.0252 O   0  0  0  0  0
   -1.4971    6.6650    7.8401 O   0  0  0  0  0
   -0.3030    5.9011    8.1056 C   0  0  0  0  0
    0.2582    5.5305    6.7547 C   0  0  0  0  0
   -2.2536    9.5471    7.4987 C   0  0  0  0  0
   -2.3925   10.7044    8.4728 C   0  0  0  0  0
   -2.2927   10.1924   10.1441 Cl  0  0  0  0  0
   -1.9199   10.0565    6.1116 C   0  0  0  0  0
   -2.2215    9.5431    5.0322 O   0  0  0  0  0
   -1.1606   11.1900    6.1113 O   0  0  0  0  0
   -0.7537   11.7242    4.8399 C   0  0  0  0  0
    0.4547   10.9935    4.3104 C   0  0  0  0  0
   -3.3099    4.8823    8.0198 H   0  0  0  0  0
   -5.0209    4.5511    7.5027 H   0  0  0  0  0
   -5.4956    7.0601    7.5970 H   0  0  0  0  0
   -3.4427    7.4387    4.0791 H   0  0  0  0  0
   -4.0024    5.7932    3.4887 H   0  0  0  0  0
   -5.2917    7.6765    2.3803 H   0  0  0  0  0
   -6.3819    6.6343    3.3982 H   0  0  0  0  0
   -5.8479    8.2515    4.0134 H   0  0  0  0  0
   -3.9252    8.1823    9.4704 H   0  0  0  0  0
   -3.3786    8.0400    6.4234 H   0  0  0  0  0
    0.3958    6.5429    8.7017 H   0  0  0  0  0
   -0.5780    4.9958    8.7080 H   0  0  0  0  0
    1.1003    4.8121    6.8957 H   0  0  0  0  0
   -0.5340    5.0560    6.1221 H   0  0  0  0  0
    0.6351    6.4358    6.2224 H   0  0  0  0  0
   -1.3571    8.9224    7.8008 H   0  0  0  0  0
   -1.5549   11.4323    8.3240 H   0  0  0  0  0
   -3.3690   11.2322    8.3503 H   0  0  0  0  0
   -1.6089   11.6732    4.1168 H   0  0  0  0  0
   -0.5165   12.7935    5.0906 H   0  0  0  0  0
    0.8072   11.4881    3.3740 H   0  0  0  0  0
    1.2822   11.0048    5.0594 H   0  0  0  0  0
    0.1934    9.9313    4.0831 H   0  0  0  0  0
  1  2  1  0  0  0
  1  4  1  0  0  0
  1 25  1  0  0  0
  1 26  1  0  0  0
  2  3  1  0  0  0
  2  9  1  0  0  0
  2 27  1  0  0  0
  4  5  2  0  0  0
  4  6  1  0  0  0
  6  7  1  0  0  0
  7  8  1  0  0  0
  7 28  1  0  0  0
  7 29  1  0  0  0
  8 30  1  0  0  0
  8 31  1  0  0  0
  8 32  1  0  0  0
  9 10  1  0  0  0
  9 12  1  0  0  0
  9 33  1  0  0  0
 10 11  1  0  0  0
 10 17  1  0  0  0
 10 34  1  0  0  0
 12 13  2  0  0  0
 12 14  1  0  0  0
 14 15  1  0  0  0
 15 16  1  0  0  0
 15 35  1  0  0  0
 15 36  1  0  0  0
 16 37  1  0  0  0
 16 38  1  0  0  0
 16 39  1  0  0  0
 17 18  1  0  0  0
 17 20  1  0  0  0
 17 40  1  0  0  0
 18 19  1  0  0  0
 18 41  1  0  0  0
 18 42  1  0  0  0
 20 21  2  0  0  0
 20 22  1  0  0  0
 22 23  1  0  0  0
 23 24  1  0  0  0
 23 43  1  0  0  0
 23 44  1  0  0  0
 24 45  1  0  0  0
 24 46  1  0  0  0
 24 47  1  0  0  0
M  END
