C:\Mis documentos\Gara\Polímeros (Tg)\Base de datos polímeros\036 trimer poly(2-chloroethyl methylacrylate).hin
 OpenBabel04231221443D

 56 55  0  0  0  0  0  0  0  0999 V2000
   -1.1573   -4.0596   -0.4366 C   0  0  0  0  0
   -1.5392   -2.6511   -0.9002 C   0  0  0  0  0
   -2.0186   -2.7429   -2.3456 C   0  0  0  0  0
   -2.6949   -2.1764   -0.0441 C   0  0  0  0  0
   -3.8020   -1.7877   -0.4182 O   0  0  0  0  0
   -2.4492   -2.2451    1.3010 O   0  0  0  0  0
   -3.4909   -1.7867    2.1829 C   0  0  0  0  0
   -3.2763   -2.5342    3.4855 C   0  0  0  0  0
   -4.4706   -2.0476    4.6676 Cl  0  0  0  0  0
   -0.2915   -1.7705   -0.7805 C   0  0  0  0  0
   -0.4111   -0.2407   -0.6962 C   0  0  0  0  0
   -1.4505    0.3365   -1.6396 C   0  0  0  0  0
   -0.7628    0.1545    0.7271 C   0  0  0  0  0
   -1.7588    0.7477    1.1413 O   0  0  0  0  0
    0.1916   -0.2068    1.6435 O   0  0  0  0  0
   -0.1197    0.0559    3.0231 C   0  0  0  0  0
    1.0674   -0.4699    3.8064 C   0  0  0  0  0
    0.8004   -0.2609    5.5224 Cl  0  0  0  0  0
    0.9798    0.3279   -1.0321 C   0  0  0  0  0
    1.0884    1.8422   -0.9080 C   0  0  0  0  0
    2.4846    2.2467   -0.4723 C   0  0  0  0  0
    0.7575    2.5410   -2.2025 C   0  0  0  0  0
   -0.0557    3.4468   -2.3870 O   0  0  0  0  0
    1.4868    2.1012   -3.2757 O   0  0  0  0  0
    1.2298    2.7532   -4.5322 C   0  0  0  0  0
    2.1413    2.0658   -5.5303 C   0  0  0  0  0
    1.9230    2.7549   -7.1233 Cl  0  0  0  0  0
   -0.8643   -4.0491    0.6408 H   0  0  0  0  0
   -2.0219   -4.7538   -0.5649 H   0  0  0  0  0
   -0.3009   -4.4356   -1.0452 H   0  0  0  0  0
   -2.4108   -1.7611   -2.7017 H   0  0  0  0  0
   -1.1778   -3.0650   -3.0047 H   0  0  0  0  0
   -2.8454   -3.4905   -2.4231 H   0  0  0  0  0
   -3.3574   -0.6775    2.3023 H   0  0  0  0  0
   -4.5007   -2.0019    1.7450 H   0  0  0  0  0
   -3.3816   -3.6351    3.3362 H   0  0  0  0  0
   -2.2708   -2.3098    3.9151 H   0  0  0  0  0
    0.3476   -2.0094   -1.6753 H   0  0  0  0  0
    0.2768   -2.1007    0.1341 H   0  0  0  0  0
   -1.4599    1.4531   -1.5681 H   0  0  0  0  0
   -1.2101    0.0443   -2.6898 H   0  0  0  0  0
   -2.4732   -0.0297   -1.3739 H   0  0  0  0  0
   -0.2635    1.1588    3.1632 H   0  0  0  0  0
   -1.0712   -0.4797    3.2855 H   0  0  0  0  0
    1.2163   -1.5601    3.6198 H   0  0  0  0  0
    1.9980    0.0859    3.5414 H   0  0  0  0  0
    1.2500    0.0189   -2.0764 H   0  0  0  0  0
    1.7217   -0.1436   -0.3317 H   0  0  0  0  0
    0.3435    2.2153   -0.1451 H   0  0  0  0  0
    2.5606    3.3584   -0.3992 H   0  0  0  0  0
    2.7112    1.8070    0.5288 H   0  0  0  0  0
    3.2418    1.8826   -1.2079 H   0  0  0  0  0
    0.1467    2.6292   -4.7945 H   0  0  0  0  0
    1.4628    3.8452   -4.4305 H   0  0  0  0  0
    3.2131    2.2003   -5.2500 H   0  0  0  0  0
    1.9063    0.9771   -5.6009 H   0  0  0  0  0
  1  2  1  0  0  0
  1 28  1  0  0  0
  1 29  1  0  0  0
  1 30  1  0  0  0
  2  3  1  0  0  0
  2  4  1  0  0  0
  2 10  1  0  0  0
  3 31  1  0  0  0
  3 32  1  0  0  0
  3 33  1  0  0  0
  4  5  2  0  0  0
  4  6  1  0  0  0
  6  7  1  0  0  0
  7  8  1  0  0  0
  7 34  1  0  0  0
  7 35  1  0  0  0
  8  9  1  0  0  0
  8 36  1  0  0  0
  8 37  1  0  0  0
 10 11  1  0  0  0
 10 38  1  0  0  0
 10 39  1  0  0  0
 11 12  1  0  0  0
 11 13  1  0  0  0
 11 19  1  0  0  0
 12 40  1  0  0  0
 12 41  1  0  0  0
 12 42  1  0  0  0
 13 14  2  0  0  0
 13 15  1  0  0  0
 15 16  1  0  0  0
 16 17  1  0  0  0
 16 43  1  0  0  0
 16 44  1  0  0  0
 17 18  1  0  0  0
 17 45  1  0  0  0
 17 46  1  0  0  0
 19 20  1  0  0  0
 19 47  1  0  0  0
 19 48  1  0  0  0
 20 21  1  0  0  0
 20 22  1  0  0  0
 20 49  1  0  0  0
 21 50  1  0  0  0
 21 51  1  0  0  0
 21 52  1  0  0  0
 22 23  2  0  0  0
 22 24  1  0  0  0
 24 25  1  0  0  0
 25 26  1  0  0  0
 25 53  1  0  0  0
 25 54  1  0  0  0
 26 27  1  0  0  0
 26 55  1  0  0  0
 26 56  1  0  0  0
M  END
