C:\Mis documentos\Gara\Polímeros (Tg)\Base de datos polímeros\037 trimer poly(tert-butyl methylacrylate).hin
 OpenBabel04231221443D

 74 73  0  0  0  0  0  0  0  0999 V2000
   -3.9092   -3.7483   -0.8811 C   0  0  0  0  0
   -3.6088   -2.4073   -0.1994 C   0  0  0  0  0
   -4.7735   -1.4718   -0.4546 C   0  0  0  0  0
   -3.4593   -2.7314    1.2838 C   0  0  0  0  0
   -2.5533   -3.3998    1.7862 O   0  0  0  0  0
   -4.4792   -2.2654    2.0543 O   0  0  0  0  0
   -4.5109   -2.5481    3.4791 C   0  0  0  0  0
   -5.7614   -1.8086    3.9521 C   0  0  0  0  0
   -4.6660   -4.0417    3.7178 C   0  0  0  0  0
   -3.2725   -1.9976    4.1660 C   0  0  0  0  0
   -2.2632   -1.9064   -0.7385 C   0  0  0  0  0
   -1.9051   -0.4122   -0.7070 C   0  0  0  0  0
   -2.4735    0.2941   -1.9288 C   0  0  0  0  0
   -2.3571    0.2512    0.5814 C   0  0  0  0  0
   -2.1054   -0.1170    1.7307 O   0  0  0  0  0
   -3.0653    1.3981    0.3767 O   0  0  0  0  0
   -3.6051    2.1484    1.4952 C   0  0  0  0  0
   -4.2066    3.3835    0.8268 C   0  0  0  0  0
   -4.6885    1.3368    2.1861 C   0  0  0  0  0
   -2.5071    2.5571    2.4634 C   0  0  0  0  0
   -0.3656   -0.3302   -0.7332 C   0  0  0  0  0
    0.1867    1.0879   -0.7617 C   0  0  0  0  0
    1.5651    1.1391   -0.1292 C   0  0  0  0  0
    0.2929    1.5932   -2.1837 C   0  0  0  0  0
    0.6396    0.9651   -3.1858 O   0  0  0  0  0
   -0.0411    2.9105   -2.2728 O   0  0  0  0  0
   -0.0054    3.6050   -3.5452 C   0  0  0  0  0
   -0.4703    5.0148   -3.1837 C   0  0  0  0  0
    1.4101    3.6408   -4.0970 C   0  0  0  0  0
   -0.9719    2.9657   -4.5288 C   0  0  0  0  0
   -3.0674   -4.4621   -0.7127 H   0  0  0  0  0
   -4.8456   -4.1882   -0.4623 H   0  0  0  0  0
   -4.0455   -3.5942   -1.9777 H   0  0  0  0  0
   -4.6123   -0.4851    0.0456 H   0  0  0  0  0
   -4.9049   -1.3166   -1.5524 H   0  0  0  0  0
   -5.7130   -1.9160   -0.0426 H   0  0  0  0  0
   -5.9082   -1.9995    5.0409 H   0  0  0  0  0
   -5.6482   -0.7113    3.7810 H   0  0  0  0  0
   -6.6562   -2.1675    3.3909 H   0  0  0  0  0
   -4.8120   -4.2284    4.8080 H   0  0  0  0  0
   -5.5507   -4.4309    3.1602 H   0  0  0  0  0
   -3.7540   -4.5880    3.3757 H   0  0  0  0  0
   -3.4602   -1.9061    5.2615 H   0  0  0  0  0
   -2.4005   -2.6756    3.9993 H   0  0  0  0  0
   -3.0173   -0.9926    3.7473 H   0  0  0  0  0
   -2.1931   -2.2194   -1.8173 H   0  0  0  0  0
   -1.4648   -2.4712   -0.1778 H   0  0  0  0  0
   -2.1824    1.3747   -1.9229 H   0  0  0  0  0
   -2.0737   -0.1764   -2.8597 H   0  0  0  0  0
   -3.5872    0.2396   -1.9354 H   0  0  0  0  0
   -4.7499    3.9836    1.5937 H   0  0  0  0  0
   -3.4001    4.0053    0.3718 H   0  0  0  0  0
   -4.9190    3.0787    0.0242 H   0  0  0  0  0
   -5.0486    1.8839    3.0888 H   0  0  0  0  0
   -5.5478    1.1710    1.4931 H   0  0  0  0  0
   -4.2862    0.3396    2.4972 H   0  0  0  0  0
   -2.8651    3.4011    3.0995 H   0  0  0  0  0
   -2.2249    1.7000    3.1219 H   0  0  0  0  0
   -1.6035    2.8862    1.8965 H   0  0  0  0  0
    0.0036   -0.8933   -1.6315 H   0  0  0  0  0
    0.0251   -0.8451    0.1867 H   0  0  0  0  0
   -0.5040    1.7759   -0.1922 H   0  0  0  0  0
    1.9747    2.1765   -0.1836 H   0  0  0  0  0
    1.5010    0.8349    0.9434 H   0  0  0  0  0
    2.2644    0.4473   -0.6576 H   0  0  0  0  0
   -0.4589    5.6497   -4.1003 H   0  0  0  0  0
   -1.5051    4.9829   -2.7683 H   0  0  0  0  0
    0.2089    5.4586   -2.4182 H   0  0  0  0  0
    1.4404    4.2990   -4.9973 H   0  0  0  0  0
    2.1111    4.0439   -3.3280 H   0  0  0  0  0
    1.7429    2.6146   -4.3861 H   0  0  0  0  0
   -1.1151    3.6420   -5.4043 H   0  0  0  0  0
   -0.5734    1.9858   -4.8872 H   0  0  0  0  0
   -1.9584    2.7928   -4.0353 H   0  0  0  0  0
  1  2  1  0  0  0
  1 31  1  0  0  0
  1 32  1  0  0  0
  1 33  1  0  0  0
  2  3  1  0  0  0
  2  4  1  0  0  0
  2 11  1  0  0  0
  3 34  1  0  0  0
  3 35  1  0  0  0
  3 36  1  0  0  0
  4  5  2  0  0  0
  4  6  1  0  0  0
  6  7  1  0  0  0
  7  8  1  0  0  0
  7  9  1  0  0  0
  7 10  1  0  0  0
  8 37  1  0  0  0
  8 38  1  0  0  0
  8 39  1  0  0  0
  9 40  1  0  0  0
  9 41  1  0  0  0
  9 42  1  0  0  0
 10 43  1  0  0  0
 10 44  1  0  0  0
 10 45  1  0  0  0
 11 12  1  0  0  0
 11 46  1  0  0  0
 11 47  1  0  0  0
 12 13  1  0  0  0
 12 14  1  0  0  0
 12 21  1  0  0  0
 13 48  1  0  0  0
 13 49  1  0  0  0
 13 50  1  0  0  0
 14 15  2  0  0  0
 14 16  1  0  0  0
 16 17  1  0  0  0
 17 18  1  0  0  0
 17 19  1  0  0  0
 17 20  1  0  0  0
 18 51  1  0  0  0
 18 52  1  0  0  0
 18 53  1  0  0  0
 19 54  1  0  0  0
 19 55  1  0  0  0
 19 56  1  0  0  0
 20 57  1  0  0  0
 20 58  1  0  0  0
 20 59  1  0  0  0
 21 22  1  0  0  0
 21 60  1  0  0  0
 21 61  1  0  0  0
 22 23  1  0  0  0
 22 24  1  0  0  0
 22 62  1  0  0  0
 23 63  1  0  0  0
 23 64  1  0  0  0
 23 65  1  0  0  0
 24 25  2  0  0  0
 24 26  1  0  0  0
 26 27  1  0  0  0
 27 28  1  0  0  0
 27 29  1  0  0  0
 27 30  1  0  0  0
 28 66  1  0  0  0
 28 67  1  0  0  0
 28 68  1  0  0  0
 29 69  1  0  0  0
 29 70  1  0  0  0
 29 71  1  0  0  0
 30 72  1  0  0  0
 30 73  1  0  0  0
 30 74  1  0  0  0
M  END
