C:\Mis documentos\Gara\Polímeros (Tg)\Base de datos polímeros\038 trimer poly(phenyl methylacrylate).hin
 OpenBabel04231221443D

 68 70  0  0  0  0  0  0  0  0999 V2000
   -2.0618   -4.4486    0.8929 C   0  0  0  0  0
   -2.4313   -2.9698    1.0206 C   0  0  0  0  0
   -2.9891   -2.7183    2.4126 C   0  0  0  0  0
   -3.5141   -2.6844   -0.0040 C   0  0  0  0  0
   -4.6954   -2.4084    0.1863 O   0  0  0  0  0
   -3.0522   -2.8060   -1.2978 O   0  0  0  0  0
   -3.9162   -2.5649   -2.3660 C   0  0  0  0  0
   -3.8895   -3.5057   -3.4054 C   0  0  0  0  0
   -4.6365   -3.2544   -4.5542 C   0  0  0  0  0
   -5.4035   -2.0929   -4.6583 C   0  0  0  0  0
   -5.4282   -1.1713   -3.6115 C   0  0  0  0  0
   -4.6830   -1.3980   -2.4550 C   0  0  0  0  0
   -1.1745   -2.1444    0.7409 C   0  0  0  0  0
   -1.2327   -0.6286    0.9826 C   0  0  0  0  0
   -2.4376    0.0010    0.3102 C   0  0  0  0  0
   -1.2233   -0.3773    2.4808 C   0  0  0  0  0
   -2.0988    0.6097    2.8680 O   0  0  0  0  0
   -2.2075    0.9489    4.2179 C   0  0  0  0  0
   -2.2129    2.3211    4.5067 C   0  0  0  0  0
   -2.4407    2.7257    5.8202 C   0  0  0  0  0
   -2.6471    1.7795    6.8255 C   0  0  0  0  0
   -2.6309    0.4179    6.5232 C   0  0  0  0  0
   -2.4126   -0.0108    5.2145 C   0  0  0  0  0
   -0.5199   -0.9248    3.3286 O   0  0  0  0  0
    1.6968    1.8123    0.8459 C   0  0  0  0  0
    0.0721   -0.0413    0.4135 C   0  0  0  0  0
    0.2378    1.4573    0.6285 C   0  0  0  0  0
   -0.2964    2.2592   -0.5341 C   0  0  0  0  0
   -1.1086    3.1802   -0.4992 O   0  0  0  0  0
    0.2475    1.8777   -1.7391 O   0  0  0  0  0
   -0.1555    2.5111   -2.9153 C   0  0  0  0  0
   -0.4360    1.6649   -3.9985 C   0  0  0  0  0
   -0.7298    2.2352   -5.2348 C   0  0  0  0  0
   -0.7544    3.6228   -5.3846 C   0  0  0  0  0
   -0.4829    4.4512   -4.2960 C   0  0  0  0  0
   -0.1790    3.9031   -3.0500 C   0  0  0  0  0
   -1.6408   -4.6540   -0.1205 H   0  0  0  0  0
   -1.3024   -4.7151    1.6661 H   0  0  0  0  0
   -2.9663   -5.0851    1.0443 H   0  0  0  0  0
   -3.3666   -1.6700    2.5059 H   0  0  0  0  0
   -3.8397   -3.4129    2.6154 H   0  0  0  0  0
   -2.1872   -2.8820    3.1735 H   0  0  0  0  0
   -3.2802   -4.4147   -3.3087 H   0  0  0  0  0
   -4.6227   -3.9803   -5.3806 H   0  0  0  0  0
   -5.9932   -1.9058   -5.5676 H   0  0  0  0  0
   -6.0379   -0.2592   -3.6939 H   0  0  0  0  0
   -4.7076   -0.6889   -1.6141 H   0  0  0  0  0
   -0.8929   -2.3075   -0.3354 H   0  0  0  0  0
   -0.3491   -2.5594    1.3833 H   0  0  0  0  0
   -2.3704    1.1164    0.3492 H   0  0  0  0  0
   -2.4889   -0.3278   -0.7574 H   0  0  0  0  0
   -3.3826   -0.3024    0.8254 H   0  0  0  0  0
   -2.0545    3.0528    3.7020 H   0  0  0  0  0
   -2.4550    3.7986    6.0630 H   0  0  0  0  0
   -2.8222    2.1094    7.8600 H   0  0  0  0  0
   -2.7911   -0.3251    7.3184 H   0  0  0  0  0
   -2.3825   -1.0812    4.9623 H   0  0  0  0  0
    1.8105    2.9144    0.9850 H   0  0  0  0  0
    2.0809    1.2964    1.7588 H   0  0  0  0  0
    2.3083    1.4968   -0.0339 H   0  0  0  0  0
    0.1132   -0.2714   -0.6842 H   0  0  0  0  0
    0.9317   -0.5730    0.9055 H   0  0  0  0  0
   -0.3596    1.7805    1.5322 H   0  0  0  0  0
   -0.4124    0.5746   -3.8646 H   0  0  0  0  0
   -0.9479    1.5848   -6.0947 H   0  0  0  0  0
   -0.9919    4.0636   -6.3638 H   0  0  0  0  0
   -0.5088    5.5445   -4.4155 H   0  0  0  0  0
    0.0166    4.5471   -2.1806 H   0  0  0  0  0
  1  2  1  0  0  0
  1 37  1  0  0  0
  1 38  1  0  0  0
  1 39  1  0  0  0
  2  3  1  0  0  0
  2  4  1  0  0  0
  2 13  1  0  0  0
  3 40  1  0  0  0
  3 41  1  0  0  0
  3 42  1  0  0  0
  4  5  2  0  0  0
  4  6  1  0  0  0
  6  7  1  0  0  0
  7  8  2  0  0  0
  7 12  1  0  0  0
  8  9  1  0  0  0
  8 43  1  0  0  0
  9 10  2  0  0  0
  9 44  1  0  0  0
 10 11  1  0  0  0
 10 45  1  0  0  0
 11 12  2  0  0  0
 11 46  1  0  0  0
 12 47  1  0  0  0
 13 14  1  0  0  0
 13 48  1  0  0  0
 13 49  1  0  0  0
 14 15  1  0  0  0
 14 16  1  0  0  0
 14 26  1  0  0  0
 15 50  1  0  0  0
 15 51  1  0  0  0
 15 52  1  0  0  0
 16 17  1  0  0  0
 16 24  2  0  0  0
 17 18  1  0  0  0
 18 19  2  0  0  0
 18 23  1  0  0  0
 19 20  1  0  0  0
 19 53  1  0  0  0
 20 21  2  0  0  0
 20 54  1  0  0  0
 21 22  1  0  0  0
 21 55  1  0  0  0
 22 23  2  0  0  0
 22 56  1  0  0  0
 23 57  1  0  0  0
 25 27  1  0  0  0
 25 58  1  0  0  0
 25 59  1  0  0  0
 25 60  1  0  0  0
 26 27  1  0  0  0
 26 61  1  0  0  0
 26 62  1  0  0  0
 27 28  1  0  0  0
 27 63  1  0  0  0
 28 29  2  0  0  0
 28 30  1  0  0  0
 30 31  1  0  0  0
 31 32  2  0  0  0
 31 36  1  0  0  0
 32 33  1  0  0  0
 32 64  1  0  0  0
 33 34  2  0  0  0
 33 65  1  0  0  0
 34 35  1  0  0  0
 34 66  1  0  0  0
 35 36  2  0  0  0
 35 67  1  0  0  0
 36 68  1  0  0  0
M  END
