C:\Mis documentos\Gara\Polímeros (Tg)\Base de datos polímeros\039 trimer poly(chlorotrifluoroethylene).hin
 OpenBabel04231221453D

 20 19  0  0  0  0  0  0  0  0999 V2000
   -2.7901   -2.5429    0.0331 C   0  0  0  0  0
   -2.9417   -0.9542    0.0924 C   0  0  0  0  0
   -4.0614   -0.3952   -1.1622 Cl  0  0  0  0  0
   -3.9850   -3.1675    0.2740 F   0  0  0  0  0
   -3.3860   -0.6206    1.3524 F   0  0  0  0  0
   -2.4282   -2.9907   -1.2083 F   0  0  0  0  0
   -1.4900   -0.3167   -0.1289 C   0  0  0  0  0
   -1.4849    1.2764    0.1023 C   0  0  0  0  0
   -2.1585    2.0932   -1.3235 Cl  0  0  0  0  0
   -0.9651   -0.6618   -1.3451 F   0  0  0  0  0
   -0.6081   -0.8986    0.7563 F   0  0  0  0  0
   -2.2067    1.5505    1.2381 F   0  0  0  0  0
    0.0330    1.7561    0.3143 C   0  0  0  0  0
    0.2529    3.3045    0.0306 C   0  0  0  0  0
   -0.8104    4.2983    1.0372 Cl  0  0  0  0  0
    0.8753    1.0353   -0.5005 F   0  0  0  0  0
    0.4502    1.4119    1.5759 F   0  0  0  0  0
    1.5799    3.6015    0.2300 F   0  0  0  0  0
   -2.0208   -2.8335    0.8121 H   0  0  0  0  0
   -0.0189    3.5186   -1.0403 H   0  0  0  0  0
  1  2  1  0  0  0
  1  4  1  0  0  0
  1  6  1  0  0  0
  1 19  1  0  0  0
  2  3  1  0  0  0
  2  5  1  0  0  0
  2  7  1  0  0  0
  7  8  1  0  0  0
  7 10  1  0  0  0
  7 11  1  0  0  0
  8  9  1  0  0  0
  8 12  1  0  0  0
  8 13  1  0  0  0
 13 14  1  0  0  0
 13 16  1  0  0  0
 13 17  1  0  0  0
 14 15  1  0  0  0
 14 18  1  0  0  0
 14 20  1  0  0  0
M  END
