C:\Mis documentos\Gara\Polímeros (Tg)\Base de datos polímeros\040 trimer poly(oxymethylene).hin
 OpenBabel04231221453D

 14 13  0  0  0  0  0  0  0  0999 V2000
   -1.0740    1.7475    0.0000 C   0  0  0  0  0
   -0.7163    3.1096   -0.0000 O   0  0  0  0  0
    0.1364   -0.2578    0.0000 C   0  0  0  0  0
    0.2189    1.1594   -0.0000 O   0  0  0  0  0
    1.7439   -1.9730    0.0000 C   0  0  0  0  0
    1.5179   -0.5721   -0.0000 O   0  0  0  0  0
   -1.6437    1.4660    0.9277 H   0  0  0  0  0
   -1.6437    1.4660   -0.9277 H   0  0  0  0  0
   -1.5478    3.5998   -0.0000 H   0  0  0  0  0
   -0.3692   -0.6375    0.9286 H   0  0  0  0  0
   -0.3693   -0.6375   -0.9286 H   0  0  0  0  0
    2.8587   -2.0679   -0.0000 H   0  0  0  0  0
    1.3090   -2.4439    0.9160 H   0  0  0  0  0
    1.3090   -2.4439   -0.9160 H   0  0  0  0  0
  1  2  1  0  0  0
  1  4  1  0  0  0
  1  7  1  0  0  0
  1  8  1  0  0  0
  2  9  1  0  0  0
  3  4  1  0  0  0
  3  6  1  0  0  0
  3 10  1  0  0  0
  3 11  1  0  0  0
  5  6  1  0  0  0
  5 12  1  0  0  0
  5 13  1  0  0  0
  5 14  1  0  0  0
M  END
