C:\Mis documentos\Gara\Polímeros (Tg)\Base de datos polímeros\041 trimer poly(oxyethylene).hin
 OpenBabel04231221453D

 23 22  0  0  0  0  0  0  0  0999 V2000
    0.5183   -3.6014    0.0000 C   0  0  0  0  0
    0.6162   -2.0938    0.0000 C   0  0  0  0  0
   -0.7213   -1.5940    0.0000 O   0  0  0  0  0
   -0.7594   -0.1697    0.0000 C   0  0  0  0  0
   -2.2386    0.2049    0.0000 C   0  0  0  0  0
   -2.2760    1.6308    0.0000 O   0  0  0  0  0
   -3.6139    2.1245    0.0000 C   0  0  0  0  0
   -3.4949    3.6462    0.0000 C   0  0  0  0  0
   -4.8228    4.1453    0.0000 O   0  0  0  0  0
    1.5451   -4.0378    0.0000 H   0  0  0  0  0
   -0.0310   -3.9558    0.9046 H   0  0  0  0  0
   -0.0310   -3.9558   -0.9046 H   0  0  0  0  0
    1.1537   -1.7225    0.9135 H   0  0  0  0  0
    1.1537   -1.7225   -0.9135 H   0  0  0  0  0
   -0.2488    0.2311   -0.9144 H   0  0  0  0  0
   -0.2488    0.2311    0.9144 H   0  0  0  0  0
   -2.7496   -0.1941   -0.9147 H   0  0  0  0  0
   -2.7496   -0.1941    0.9147 H   0  0  0  0  0
   -4.1566    1.7695    0.9147 H   0  0  0  0  0
   -4.1566    1.7695   -0.9146 H   0  0  0  0  0
   -2.9458    3.9942    0.9142 H   0  0  0  0  0
   -2.9458    3.9942   -0.9142 H   0  0  0  0  0
   -4.7512    5.1066    0.0000 H   0  0  0  0  0
  1  2  1  0  0  0
  1 10  1  0  0  0
  1 11  1  0  0  0
  1 12  1  0  0  0
  2  3  1  0  0  0
  2 13  1  0  0  0
  2 14  1  0  0  0
  3  4  1  0  0  0
  4  5  1  0  0  0
  4 15  1  0  0  0
  4 16  1  0  0  0
  5  6  1  0  0  0
  5 17  1  0  0  0
  5 18  1  0  0  0
  6  7  1  0  0  0
  7  8  1  0  0  0
  7 19  1  0  0  0
  7 20  1  0  0  0
  8  9  1  0  0  0
  8 21  1  0  0  0
  8 22  1  0  0  0
  9 23  1  0  0  0
M  END
