C:\Mis documentos\Gara\Polímeros (Tg)\Base de datos polímeros\042 trimer poly(oxytrimethylene).hin
 OpenBabel04231221463D

 32 31  0  0  0  0  0  0  0  0999 V2000
    1.5922   -4.9708    0.0000 C   0  0  0  0  0
    1.3275   -3.4886    0.0000 C   0  0  0  0  0
   -0.1654   -3.2106    0.0000 C   0  0  0  0  0
   -0.3171   -1.7922    0.0000 O   0  0  0  0  0
   -1.6871   -1.3992    0.0000 C   0  0  0  0  0
   -1.7010    0.1183    0.0000 C   0  0  0  0  0
   -3.1348    0.6149    0.0000 C   0  0  0  0  0
   -3.0700    2.0394    0.0000 O   0  0  0  0  0
   -4.3656    2.6349    0.0000 C   0  0  0  0  0
   -4.1496    4.1365    0.0000 C   0  0  0  0  0
   -5.4903    4.8486    0.0000 C   0  0  0  0  0
   -5.2184    6.2410    0.0000 O   0  0  0  0  0
    2.6921   -5.1643    0.0000 H   0  0  0  0  0
    1.1496   -5.4526    0.9054 H   0  0  0  0  0
    1.1496   -5.4526   -0.9054 H   0  0  0  0  0
    1.7908   -3.0101    0.9021 H   0  0  0  0  0
    1.7908   -3.0101   -0.9021 H   0  0  0  0  0
   -0.6550   -3.6425   -0.9135 H   0  0  0  0  0
   -0.6550   -3.6425    0.9135 H   0  0  0  0  0
   -2.1970   -1.8074    0.9136 H   0  0  0  0  0
   -2.1970   -1.8074   -0.9136 H   0  0  0  0  0
   -1.1609    0.5066    0.9016 H   0  0  0  0  0
   -1.1609    0.5066   -0.9016 H   0  0  0  0  0
   -3.6843    0.2623   -0.9137 H   0  0  0  0  0
   -3.6843    0.2623    0.9137 H   0  0  0  0  0
   -4.9310    2.3080    0.9136 H   0  0  0  0  0
   -4.9310    2.3080   -0.9136 H   0  0  0  0  0
   -3.5568    4.4388    0.9014 H   0  0  0  0  0
   -3.5568    4.4388   -0.9014 H   0  0  0  0  0
   -6.0848    4.5749   -0.9133 H   0  0  0  0  0
   -6.0848    4.5749    0.9133 H   0  0  0  0  0
   -6.0727    6.6874    0.0000 H   0  0  0  0  0
  1  2  1  0  0  0
  1 13  1  0  0  0
  1 14  1  0  0  0
  1 15  1  0  0  0
  2  3  1  0  0  0
  2 16  1  0  0  0
  2 17  1  0  0  0
  3  4  1  0  0  0
  3 18  1  0  0  0
  3 19  1  0  0  0
  4  5  1  0  0  0
  5  6  1  0  0  0
  5 20  1  0  0  0
  5 21  1  0  0  0
  6  7  1  0  0  0
  6 22  1  0  0  0
  6 23  1  0  0  0
  7  8  1  0  0  0
  7 24  1  0  0  0
  7 25  1  0  0  0
  8  9  1  0  0  0
  9 10  1  0  0  0
  9 26  1  0  0  0
  9 27  1  0  0  0
 10 11  1  0  0  0
 10 28  1  0  0  0
 10 29  1  0  0  0
 11 12  1  0  0  0
 11 30  1  0  0  0
 11 31  1  0  0  0
 12 32  1  0  0  0
M  END
