C:\Mis documentos\Gara\Polímeros (Tg)\Base de datos polímeros\043 trimer poly(oxytetramethylene).hin
 OpenBabel04231221463D

 41 40  0  0  0  0  0  0  0  0999 V2000
    2.7720   -6.7175    0.0000 C   0  0  0  0  0
    2.8576   -5.2129    0.0000 C   0  0  0  0  0
    1.4818   -4.5836   -0.0000 C   0  0  0  0  0
    1.5892   -3.0691    0.0000 C   0  0  0  0  0
    0.2548   -2.5654   -0.0000 O   0  0  0  0  0
    0.2181   -1.1399    0.0000 C   0  0  0  0  0
   -1.2483   -0.7453   -0.0000 C   0  0  0  0  0
   -1.3872    0.7598    0.0000 C   0  0  0  0  0
   -2.8545    1.1509   -0.0000 C   0  0  0  0  0
   -2.8971    2.5766    0.0000 O   0  0  0  0  0
   -4.2346    3.0722   -0.0000 C   0  0  0  0  0
   -4.1364    4.5876    0.0000 C   0  0  0  0  0
   -5.5177    5.2008   -0.0000 C   0  0  0  0  0
   -5.4244    6.7170    0.0000 C   0  0  0  0  0
   -6.7538    7.2141   -0.0000 O   0  0  0  0  0
    3.7955   -7.1640    0.0000 H   0  0  0  0  0
    2.2278   -7.0813    0.9050 H   0  0  0  0  0
    2.2278   -7.0813   -0.9050 H   0  0  0  0  0
    3.4281   -4.8681    0.9029 H   0  0  0  0  0
    3.4281   -4.8681   -0.9029 H   0  0  0  0  0
    0.9045   -4.9145   -0.9022 H   0  0  0  0  0
    0.9045   -4.9145    0.9022 H   0  0  0  0  0
    2.1302   -2.7036    0.9135 H   0  0  0  0  0
    2.1302   -2.7036   -0.9135 H   0  0  0  0  0
    0.7403   -0.7483   -0.9136 H   0  0  0  0  0
    0.7403   -0.7483    0.9136 H   0  0  0  0  0
   -1.7490   -1.1832   -0.9026 H   0  0  0  0  0
   -1.7490   -1.1832    0.9026 H   0  0  0  0  0
   -0.8870    1.1982    0.9026 H   0  0  0  0  0
   -0.8870    1.1982   -0.9026 H   0  0  0  0  0
   -3.3754    0.7579   -0.9137 H   0  0  0  0  0
   -3.3755    0.7579    0.9137 H   0  0  0  0  0
   -4.7735    2.7042    0.9137 H   0  0  0  0  0
   -4.7735    2.7042   -0.9137 H   0  0  0  0  0
   -3.5611    4.9213    0.9026 H   0  0  0  0  0
   -3.5611    4.9213   -0.9026 H   0  0  0  0  0
   -6.0933    4.8669   -0.9025 H   0  0  0  0  0
   -6.0933    4.8669    0.9025 H   0  0  0  0  0
   -4.8802    7.0796    0.9133 H   0  0  0  0  0
   -4.8802    7.0796   -0.9133 H   0  0  0  0  0
   -6.6875    8.1756    0.0000 H   0  0  0  0  0
  1  2  1  0  0  0
  1 16  1  0  0  0
  1 17  1  0  0  0
  1 18  1  0  0  0
  2  3  1  0  0  0
  2 19  1  0  0  0
  2 20  1  0  0  0
  3  4  1  0  0  0
  3 21  1  0  0  0
  3 22  1  0  0  0
  4  5  1  0  0  0
  4 23  1  0  0  0
  4 24  1  0  0  0
  5  6  1  0  0  0
  6  7  1  0  0  0
  6 25  1  0  0  0
  6 26  1  0  0  0
  7  8  1  0  0  0
  7 27  1  0  0  0
  7 28  1  0  0  0
  8  9  1  0  0  0
  8 29  1  0  0  0
  8 30  1  0  0  0
  9 10  1  0  0  0
  9 31  1  0  0  0
  9 32  1  0  0  0
 10 11  1  0  0  0
 11 12  1  0  0  0
 11 33  1  0  0  0
 11 34  1  0  0  0
 12 13  1  0  0  0
 12 35  1  0  0  0
 12 36  1  0  0  0
 13 14  1  0  0  0
 13 37  1  0  0  0
 13 38  1  0  0  0
 14 15  1  0  0  0
 14 39  1  0  0  0
 14 40  1  0  0  0
 15 41  1  0  0  0
M  END
