C:\Mis documentos\Gara\Polímeros (Tg)\Base de datos polímeros\044 trimer poly(ethylene terephthalate).hin
 OpenBabel04231221473D

 68 70  0  0  0  0  0  0  0  0999 V2000
   -1.6651   -5.1488   -1.3208 C   0  0  0  0  0
   -2.2424   -5.7904   -2.1963 O   0  0  0  0  0
   -0.2069   -5.0731   -1.0925 C   0  0  0  0  0
    0.5127   -3.9542   -1.5275 C   0  0  0  0  0
    1.8930   -3.9054   -1.3494 C   0  0  0  0  0
    2.5562   -4.9772   -0.7359 C   0  0  0  0  0
    1.8374   -6.0994   -0.3109 C   0  0  0  0  0
    0.4555   -6.1484   -0.4920 C   0  0  0  0  0
    4.0156   -4.8869   -0.5593 C   0  0  0  0  0
    4.7498   -3.9385   -0.8525 O   0  0  0  0  0
    4.5838   -5.9982   -0.0020 O   0  0  0  0  0
    6.0132   -5.9586    0.1820 C   0  0  0  0  0
   -2.5401   -4.4588   -0.5170 O   0  0  0  0  0
    6.3850    5.5083   -1.5483 O   0  0  0  0  0
    6.0144    6.3028   -0.4995 C   0  0  0  0  0
    6.9660    6.7359    0.1499 O   0  0  0  0  0
    4.5827    6.5659   -0.2488 C   0  0  0  0  0
    4.2047    7.8165    0.2528 C   0  0  0  0  0
    2.8612    8.0877    0.5062 C   0  0  0  0  0
    1.8948    7.1019    0.2681 C   0  0  0  0  0
    2.2739    5.8465   -0.2220 C   0  0  0  0  0
    3.6164    5.5802   -0.4808 C   0  0  0  0  0
    0.4856    7.4226    0.5470 C   0  0  0  0  0
    0.0151    8.4965    0.9303 O   0  0  0  0  0
   -0.3780    6.3752    0.3561 O   0  0  0  0  0
   -1.7710    6.6556    0.5775 C   0  0  0  0  0
   -2.5172    5.3784    0.2164 C   0  0  0  0  0
   -2.9270    5.5285   -1.1469 O   0  0  0  0  0
   -3.3744    4.4092   -1.8055 C   0  0  0  0  0
   -3.6383    4.6332   -2.9852 O   0  0  0  0  0
   -3.4960    3.1162   -1.1002 C   0  0  0  0  0
   -2.6421    2.0637   -1.4463 C   0  0  0  0  0
   -4.4931    2.9284   -0.1364 C   0  0  0  0  0
   -4.6271    1.6923    0.4916 C   0  0  0  0  0
   -3.7601    0.6426    0.1579 C   0  0  0  0  0
   -2.7710    0.8280   -0.8139 C   0  0  0  0  0
   -3.9276   -0.6473    0.8465 C   0  0  0  0  0
   -4.7908   -0.9586    1.6710 O   0  0  0  0  0
   -2.9848   -1.5861    0.5176 O   0  0  0  0  0
   -3.1356   -2.8775    1.1330 C   0  0  0  0  0
   -1.9982   -3.7329    0.5910 C   0  0  0  0  0
    6.3953   -7.2900    0.7802 C   0  0  0  0  0
   -0.0100   -3.1186   -2.0184 H   0  0  0  0  0
    2.4740   -3.0316   -1.6889 H   0  0  0  0  0
    2.3677   -6.9432    0.1607 H   0  0  0  0  0
   -0.1109   -7.0370   -0.1724 H   0  0  0  0  0
    6.4981   -5.7891   -0.8147 H   0  0  0  0  0
    6.2615   -5.1028    0.8625 H   0  0  0  0  0
    5.6090    5.2544   -2.0667 H   0  0  0  0  0
    4.9763    8.5788    0.4514 H   0  0  0  0  0
    2.5502    9.0720    0.8953 H   0  0  0  0  0
    1.5076    5.0748   -0.4004 H   0  0  0  0  0
    3.9130    4.5862   -0.8506 H   0  0  0  0  0
   -1.9186    6.9110    1.6585 H   0  0  0  0  0
   -2.0845    7.5170   -0.0690 H   0  0  0  0  0
   -1.8595    4.4777    0.3304 H   0  0  0  0  0
   -3.4329    5.2745    0.8560 H   0  0  0  0  0
   -1.8773    2.2092   -2.2252 H   0  0  0  0  0
   -5.1788    3.7519    0.1173 H   0  0  0  0  0
   -5.4130    1.5277    1.2479 H   0  0  0  0  0
   -2.1023   -0.0063   -1.0812 H   0  0  0  0  0
   -3.0515   -2.7604    2.2442 H   0  0  0  0  0
   -4.1392   -3.2999    0.8641 H   0  0  0  0  0
   -1.1368   -3.0967    0.2579 H   0  0  0  0  0
   -1.6630   -4.4651    1.3713 H   0  0  0  0  0
    7.4995   -7.3095    0.9429 H   0  0  0  0  0
    5.8788   -7.4453    1.7574 H   0  0  0  0  0
    6.1115   -8.1247    0.0958 H   0  0  0  0  0
  1  2  2  0  0  0
  1  3  1  0  0  0
  1 13  1  0  0  0
  3  4  2  0  0  0
  3  8  1  0  0  0
  4  5  1  0  0  0
  4 43  1  0  0  0
  5  6  2  0  0  0
  5 44  1  0  0  0
  6  7  1  0  0  0
  6  9  1  0  0  0
  7  8  2  0  0  0
  7 45  1  0  0  0
  8 46  1  0  0  0
  9 10  2  0  0  0
  9 11  1  0  0  0
 11 12  1  0  0  0
 12 42  1  0  0  0
 12 47  1  0  0  0
 12 48  1  0  0  0
 13 41  1  0  0  0
 14 15  1  0  0  0
 14 49  1  0  0  0
 15 16  2  0  0  0
 15 17  1  0  0  0
 17 18  2  0  0  0
 17 22  1  0  0  0
 18 19  1  0  0  0
 18 50  1  0  0  0
 19 20  2  0  0  0
 19 51  1  0  0  0
 20 21  1  0  0  0
 20 23  1  0  0  0
 21 22  2  0  0  0
 21 52  1  0  0  0
 22 53  1  0  0  0
 23 24  2  0  0  0
 23 25  1  0  0  0
 25 26  1  0  0  0
 26 27  1  0  0  0
 26 54  1  0  0  0
 26 55  1  0  0  0
 27 28  1  0  0  0
 27 56  1  0  0  0
 27 57  1  0  0  0
 28 29  1  0  0  0
 29 30  2  0  0  0
 29 31  1  0  0  0
 31 32  2  0  0  0
 31 33  1  0  0  0
 32 36  1  0  0  0
 32 58  1  0  0  0
 33 34  2  0  0  0
 33 59  1  0  0  0
 34 35  1  0  0  0
 34 60  1  0  0  0
 35 36  2  0  0  0
 35 37  1  0  0  0
 36 61  1  0  0  0
 37 38  2  0  0  0
 37 39  1  0  0  0
 39 40  1  0  0  0
 40 41  1  0  0  0
 40 62  1  0  0  0
 40 63  1  0  0  0
 41 64  1  0  0  0
 41 65  1  0  0  0
 42 66  1  0  0  0
 42 67  1  0  0  0
 42 68  1  0  0  0
M  END
