C:\Mis documentos\Gara\Polímeros (Tg)\Base de datos polímeros\045 trimer poly(vinyl n-octyl ether).hin
 OpenBabel04231221473D

 95 94  0  0  0  0  0  0  0  0999 V2000
   -3.0128   -4.8728   -1.8780 C   0  0  0  0  0
   -2.9635   -3.4695   -1.3002 C   0  0  0  0  0
   -3.6663   -3.4323   -0.0530 O   0  0  0  0  0
   -5.0789   -3.2920   -0.1801 C   0  0  0  0  0
   -5.5716   -2.7893    1.1676 C   0  0  0  0  0
   -6.9609   -2.2016    1.0607 C   0  0  0  0  0
   -7.3919   -1.6039    2.3836 C   0  0  0  0  0
   -8.7468   -0.9379    2.2777 C   0  0  0  0  0
   -9.1579   -0.3266    3.6002 C   0  0  0  0  0
  -10.4921    0.3806    3.4923 C   0  0  0  0  0
  -10.9012    0.9938    4.8067 C   0  0  0  0  0
   -1.5308   -3.0448   -0.9787 C   0  0  0  0  0
   -1.2341   -1.5824   -1.3067 C   0  0  0  0  0
   -1.5266   -0.7450   -0.1822 O   0  0  0  0  0
   -2.8638   -0.2501   -0.1792 C   0  0  0  0  0
   -3.0909    0.4116    1.1689 C   0  0  0  0  0
   -4.4832    1.0009    1.2294 C   0  0  0  0  0
   -4.7862    1.5645    2.6011 C   0  0  0  0  0
   -6.1642    2.1904    2.6400 C   0  0  0  0  0
   -6.5071    2.6877    4.0277 C   0  0  0  0  0
   -7.8639    3.3593    4.0507 C   0  0  0  0  0
   -8.2465    3.7887    5.4434 C   0  0  0  0  0
    0.2571   -1.4041   -1.5890 C   0  0  0  0  0
    0.5585    0.0247   -2.0022 C   0  0  0  0  0
    1.9618    0.0895   -2.2506 O   0  0  0  0  0
    2.3989    1.4222   -2.5084 C   0  0  0  0  0
    3.9019    1.3560   -2.7131 C   0  0  0  0  0
    4.4638    2.7404   -2.9496 C   0  0  0  0  0
    5.9653    2.6952   -3.1358 C   0  0  0  0  0
    6.5323    4.0812   -3.3567 C   0  0  0  0  0
    8.0352    4.0389   -3.5307 C   0  0  0  0  0
    8.6041    5.4255   -3.7450 C   0  0  0  0  0
   10.1010    5.3892   -3.9140 C   0  0  0  0  0
   -2.4685   -4.9057   -2.8511 H   0  0  0  0  0
   -2.5416   -5.5979   -1.1725 H   0  0  0  0  0
   -4.0725   -5.1814   -2.0451 H   0  0  0  0  0
   -3.4367   -2.7495   -2.0269 H   0  0  0  0  0
   -5.3325   -2.5616   -0.9949 H   0  0  0  0  0
   -5.5257   -4.2885   -0.4357 H   0  0  0  0  0
   -5.5628   -3.6320    1.9058 H   0  0  0  0  0
   -4.8549   -2.0099    1.5459 H   0  0  0  0  0
   -6.9749   -1.4044    0.2701 H   0  0  0  0  0
   -7.6883   -2.9946    0.7458 H   0  0  0  0  0
   -7.4251   -2.4067    3.1662 H   0  0  0  0  0
   -6.6299   -0.8469    2.7156 H   0  0  0  0  0
   -8.7108   -0.1383    1.4908 H   0  0  0  0  0
   -9.5139   -1.6888    1.9529 H   0  0  0  0  0
   -9.2190   -1.1280    4.3827 H   0  0  0  0  0
   -8.3729    0.4049    3.9347 H   0  0  0  0  0
  -10.4266    1.1818    2.7088 H   0  0  0  0  0
  -11.2755   -0.3484    3.1550 H   0  0  0  0  0
  -11.8978    1.4883    4.7108 H   0  0  0  0  0
  -10.9700    0.2130    5.6022 H   0  0  0  0  0
  -10.1558    1.7620    5.1323 H   0  0  0  0  0
   -0.8266   -3.6962   -1.5583 H   0  0  0  0  0
   -1.3380   -3.2136    0.1148 H   0  0  0  0  0
   -1.8299   -1.2482   -2.2018 H   0  0  0  0  0
   -2.9829    0.4894   -1.0162 H   0  0  0  0  0
   -3.5879   -1.0964   -0.3267 H   0  0  0  0  0
   -2.9568   -0.3517    1.9794 H   0  0  0  0  0
   -2.3215    1.2097    1.3315 H   0  0  0  0  0
   -4.5847    1.8096    0.4585 H   0  0  0  0  0
   -5.2392    0.2067    0.9806 H   0  0  0  0  0
   -4.7246    0.7439    3.3643 H   0  0  0  0  0
   -4.0145    2.3311    2.8748 H   0  0  0  0  0
   -6.2110    3.0422    1.9116 H   0  0  0  0  0
   -6.9295    1.4336    2.3161 H   0  0  0  0  0
   -6.5040    1.8247    4.7454 H   0  0  0  0  0
   -5.7234    3.4108    4.3757 H   0  0  0  0  0
   -7.8510    4.2512    3.3702 H   0  0  0  0  0
   -8.6388    2.6496    3.6512 H   0  0  0  0  0
   -9.2531    4.2723    5.4374 H   0  0  0  0  0
   -8.2836    2.9085    6.1306 H   0  0  0  0  0
   -7.5053    4.5188    5.8495 H   0  0  0  0  0
    0.5660   -2.1056   -2.4053 H   0  0  0  0  0
    0.8466   -1.6572   -0.6706 H   0  0  0  0  0
    0.0040    0.3015   -2.9387 H   0  0  0  0  0
    0.2751    0.7380   -1.1829 H   0  0  0  0  0
    1.8837    1.8156   -3.4251 H   0  0  0  0  0
    2.1413    2.0808   -1.6361 H   0  0  0  0  0
    4.3781    0.8928   -1.8099 H   0  0  0  0  0
    4.1294    0.6900   -3.5856 H   0  0  0  0  0
    3.9854    3.1925   -3.8582 H   0  0  0  0  0
    4.2134    3.4031   -2.0792 H   0  0  0  0  0
    6.4423    2.2333   -2.2314 H   0  0  0  0  0
    6.2163    2.0412   -4.0121 H   0  0  0  0  0
    6.0610    4.5401   -4.2656 H   0  0  0  0  0
    6.2734    4.7369   -2.4838 H   0  0  0  0  0
    8.5061    3.5763   -2.6235 H   0  0  0  0  0
    8.2947    3.3871   -4.4061 H   0  0  0  0  0
    8.1332    5.8860   -4.6535 H   0  0  0  0  0
    8.3394    6.0770   -2.8706 H   0  0  0  0  0
   10.4993    6.4206   -4.0708 H   0  0  0  0  0
   10.5898    4.9563   -3.0078 H   0  0  0  0  0
   10.3834    4.7641   -4.7955 H   0  0  0  0  0
  1  2  1  0  0  0
  1 34  1  0  0  0
  1 35  1  0  0  0
  1 36  1  0  0  0
  2  3  1  0  0  0
  2 12  1  0  0  0
  2 37  1  0  0  0
  3  4  1  0  0  0
  4  5  1  0  0  0
  4 38  1  0  0  0
  4 39  1  0  0  0
  5  6  1  0  0  0
  5 40  1  0  0  0
  5 41  1  0  0  0
  6  7  1  0  0  0
  6 42  1  0  0  0
  6 43  1  0  0  0
  7  8  1  0  0  0
  7 44  1  0  0  0
  7 45  1  0  0  0
  8  9  1  0  0  0
  8 46  1  0  0  0
  8 47  1  0  0  0
  9 10  1  0  0  0
  9 48  1  0  0  0
  9 49  1  0  0  0
 10 11  1  0  0  0
 10 50  1  0  0  0
 10 51  1  0  0  0
 11 52  1  0  0  0
 11 53  1  0  0  0
 11 54  1  0  0  0
 12 13  1  0  0  0
 12 55  1  0  0  0
 12 56  1  0  0  0
 13 14  1  0  0  0
 13 23  1  0  0  0
 13 57  1  0  0  0
 14 15  1  0  0  0
 15 16  1  0  0  0
 15 58  1  0  0  0
 15 59  1  0  0  0
 16 17  1  0  0  0
 16 60  1  0  0  0
 16 61  1  0  0  0
 17 18  1  0  0  0
 17 62  1  0  0  0
 17 63  1  0  0  0
 18 19  1  0  0  0
 18 64  1  0  0  0
 18 65  1  0  0  0
 19 20  1  0  0  0
 19 66  1  0  0  0
 19 67  1  0  0  0
 20 21  1  0  0  0
 20 68  1  0  0  0
 20 69  1  0  0  0
 21 22  1  0  0  0
 21 70  1  0  0  0
 21 71  1  0  0  0
 22 72  1  0  0  0
 22 73  1  0  0  0
 22 74  1  0  0  0
 23 24  1  0  0  0
 23 75  1  0  0  0
 23 76  1  0  0  0
 24 25  1  0  0  0
 24 77  1  0  0  0
 24 78  1  0  0  0
 25 26  1  0  0  0
 26 27  1  0  0  0
 26 79  1  0  0  0
 26 80  1  0  0  0
 27 28  1  0  0  0
 27 81  1  0  0  0
 27 82  1  0  0  0
 28 29  1  0  0  0
 28 83  1  0  0  0
 28 84  1  0  0  0
 29 30  1  0  0  0
 29 85  1  0  0  0
 29 86  1  0  0  0
 30 31  1  0  0  0
 30 87  1  0  0  0
 30 88  1  0  0  0
 31 32  1  0  0  0
 31 89  1  0  0  0
 31 90  1  0  0  0
 32 33  1  0  0  0
 32 91  1  0  0  0
 32 92  1  0  0  0
 33 93  1  0  0  0
 33 94  1  0  0  0
 33 95  1  0  0  0
M  END
