C:\Mis documentos\Gara\Polímeros (Tg)\Base de datos polímeros\046 trimer poly(vinyl n-decyl ether).hin
 OpenBabel04231221473D

113112  0  0  0  0  0  0  0  0999 V2000
   -2.4704   -5.8685   -2.1223 C   0  0  0  0  0
   -2.3832   -4.4430   -1.6068 C   0  0  0  0  0
   -3.0245   -4.3478   -0.3299 O   0  0  0  0  0
   -4.4409   -4.2017   -0.3943 C   0  0  0  0  0
   -4.8630   -3.6305    0.9501 C   0  0  0  0  0
   -6.2531   -3.0386    0.8851 C   0  0  0  0  0
   -6.6108   -2.3714    2.1966 C   0  0  0  0  0
   -7.9685   -1.7059    2.1312 C   0  0  0  0  0
   -8.3041   -1.0271    3.4421 C   0  0  0  0  0
   -9.6426   -0.3237    3.3747 C   0  0  0  0  0
   -9.9814    0.3360    4.6944 C   0  0  0  0  0
  -11.3070    1.0641    4.6241 C   0  0  0  0  0
  -11.6488    1.7209    5.9366 C   0  0  0  0  0
   -0.9336   -4.0185   -1.3728 C   0  0  0  0  0
   -0.6456   -2.5709   -1.7671 C   0  0  0  0  0
   -0.8937   -1.6908   -0.6646 O   0  0  0  0  0
   -2.2241   -1.1789   -0.6376 C   0  0  0  0  0
   -2.3921   -0.4477    0.6830 C   0  0  0  0  0
   -3.7771    0.1553    0.7692 C   0  0  0  0  0
   -4.0135    0.8095    2.1135 C   0  0  0  0  0
   -5.3867    1.4438    2.1747 C   0  0  0  0  0
   -5.6541    2.0568    3.5325 C   0  0  0  0  0
   -7.0056    2.7378    3.5683 C   0  0  0  0  0
   -7.3005    3.3075    4.9391 C   0  0  0  0  0
   -8.6364    4.0197    4.9630 C   0  0  0  0  0
   -8.9651    4.5348    6.3403 C   0  0  0  0  0
    0.8344   -2.4075   -2.1110 C   0  0  0  0  0
    1.1173   -0.9992   -2.6010 C   0  0  0  0  0
    2.5227   -0.9210   -2.8325 O   0  0  0  0  0
    2.9386    0.4050   -3.1528 C   0  0  0  0  0
    4.4513    0.3710   -3.2784 C   0  0  0  0  0
    4.9879    1.7583   -3.5535 C   0  0  0  0  0
    6.4995    1.7542   -3.6332 C   0  0  0  0  0
    7.0383    3.1469   -3.8814 C   0  0  0  0  0
    8.5512    3.1520   -3.9257 C   0  0  0  0  0
    9.0886    4.5479   -4.1582 C   0  0  0  0  0
   10.6019    4.5581   -4.1818 C   0  0  0  0  0
   11.1399    5.9550   -4.4088 C   0  0  0  0  0
   12.6465    5.9719   -4.4252 C   0  0  0  0  0
   -1.9753   -5.9466   -3.1187 H   0  0  0  0  0
   -1.9697   -6.5678   -1.4110 H   0  0  0  0  0
   -3.5391   -6.1744   -2.2238 H   0  0  0  0  0
   -2.8857   -3.7493   -2.3394 H   0  0  0  0  0
   -4.7304   -3.5094   -1.2300 H   0  0  0  0  0
   -4.9056   -5.2057   -0.5788 H   0  0  0  0  0
   -4.8207   -4.4364    1.7272 H   0  0  0  0  0
   -4.1244   -2.8389    1.2535 H   0  0  0  0  0
   -6.3046   -2.2826    0.0566 H   0  0  0  0  0
   -6.9998   -3.8412    0.6495 H   0  0  0  0  0
   -6.6022   -3.1327    3.0203 H   0  0  0  0  0
   -5.8307   -1.6015    2.4469 H   0  0  0  0  0
   -7.9751   -0.9473    1.3041 H   0  0  0  0  0
   -8.7534   -2.4691    1.8879 H   0  0  0  0  0
   -8.3189   -1.7877    4.2665 H   0  0  0  0  0
   -7.5021   -0.2805    3.6928 H   0  0  0  0  0
   -9.6178    0.4515    2.5634 H   0  0  0  0  0
  -10.4439   -1.0608    3.1045 H   0  0  0  0  0
  -10.0208   -0.4394    5.5039 H   0  0  0  0  0
   -9.1694    1.0626    4.9698 H   0  0  0  0  0
  -11.2623    1.8417    3.8157 H   0  0  0  0  0
  -12.1165    0.3402    4.3418 H   0  0  0  0  0
  -12.6408    2.2293    5.8694 H   0  0  0  0  0
  -11.6952    0.9641    6.7566 H   0  0  0  0  0
  -10.8782    2.4854    6.2075 H   0  0  0  0  0
   -0.2634   -4.6948   -1.9640 H   0  0  0  0  0
   -0.6870   -4.1502   -0.2851 H   0  0  0  0  0
   -1.2739   -2.2691   -2.6514 H   0  0  0  0  0
   -2.3670   -0.4806   -1.5057 H   0  0  0  0  0
   -2.9621   -2.0225   -0.7153 H   0  0  0  0  0
   -2.2298   -1.1698    1.5256 H   0  0  0  0  0
   -1.6118    0.3512    0.7731 H   0  0  0  0  0
   -3.9100    0.9132   -0.0473 H   0  0  0  0  0
   -4.5476   -0.6473    0.6073 H   0  0  0  0  0
   -3.9177    0.0409    2.9258 H   0  0  0  0  0
   -3.2280    1.5883    2.2991 H   0  0  0  0  0
   -5.4717    2.2329    1.3818 H   0  0  0  0  0
   -6.1690    0.6670    1.9559 H   0  0  0  0  0
   -5.6160    1.2565    4.3185 H   0  0  0  0  0
   -4.8505    2.8002    3.7771 H   0  0  0  0  0
   -7.0334    3.5591    2.8046 H   0  0  0  0  0
   -7.8055    1.9987    3.2907 H   0  0  0  0  0
   -7.3045    2.4785    5.6958 H   0  0  0  0  0
   -6.4880    4.0220    5.2350 H   0  0  0  0  0
   -8.6184    4.8729    4.2346 H   0  0  0  0  0
   -9.4423    3.3127    4.6247 H   0  0  0  0  0
   -9.9583    5.0453    6.3367 H   0  0  0  0  0
   -9.0043    3.6948    7.0760 H   0  0  0  0  0
   -8.1930    5.2649    6.6839 H   0  0  0  0  0
    1.1156   -3.1469   -2.9033 H   0  0  0  0  0
    1.4565   -2.6164   -1.2028 H   0  0  0  0  0
    0.5722   -0.7860   -3.5592 H   0  0  0  0  0
    0.8087   -0.2466   -1.8268 H   0  0  0  0  0
    2.4600    0.7239   -4.1171 H   0  0  0  0  0
    2.6206    1.1104   -2.3389 H   0  0  0  0  0
    4.8915   -0.0346   -2.3302 H   0  0  0  0  0
    4.7413   -0.3291   -4.1042 H   0  0  0  0  0
    4.5611    2.1446   -4.5165 H   0  0  0  0  0
    4.6578    2.4584   -2.7407 H   0  0  0  0  0
    6.9249    1.3513   -2.6762 H   0  0  0  0  0
    6.8316    1.0687   -4.4568 H   0  0  0  0  0
    6.6319    3.5405   -4.8502 H   0  0  0  0  0
    6.6844    3.8367   -3.0702 H   0  0  0  0  0
    8.9569    2.7491   -2.9602 H   0  0  0  0  0
    8.9064    2.4706   -4.7431 H   0  0  0  0  0
    8.6943    4.9456   -5.1303 H   0  0  0  0  0
    8.7211    5.2319   -3.3482 H   0  0  0  0  0
   10.9962    4.1575   -3.2108 H   0  0  0  0  0
   10.9705    3.8773   -4.9938 H   0  0  0  0  0
   10.7478    6.3526   -5.3821 H   0  0  0  0  0
   10.7644    6.6358   -3.5996 H   0  0  0  0  0
   13.0215    7.0100   -4.5948 H   0  0  0  0  0
   13.0557    5.6035   -3.4534 H   0  0  0  0  0
   13.0396    5.3174   -5.2404 H   0  0  0  0  0
  1  2  1  0  0  0
  1 40  1  0  0  0
  1 41  1  0  0  0
  1 42  1  0  0  0
  2  3  1  0  0  0
  2 14  1  0  0  0
  2 43  1  0  0  0
  3  4  1  0  0  0
  4  5  1  0  0  0
  4 44  1  0  0  0
  4 45  1  0  0  0
  5  6  1  0  0  0
  5 46  1  0  0  0
  5 47  1  0  0  0
  6  7  1  0  0  0
  6 48  1  0  0  0
  6 49  1  0  0  0
  7  8  1  0  0  0
  7 50  1  0  0  0
  7 51  1  0  0  0
  8  9  1  0  0  0
  8 52  1  0  0  0
  8 53  1  0  0  0
  9 10  1  0  0  0
  9 54  1  0  0  0
  9 55  1  0  0  0
 10 11  1  0  0  0
 10 56  1  0  0  0
 10 57  1  0  0  0
 11 12  1  0  0  0
 11 58  1  0  0  0
 11 59  1  0  0  0
 12 13  1  0  0  0
 12 60  1  0  0  0
 12 61  1  0  0  0
 13 62  1  0  0  0
 13 63  1  0  0  0
 13 64  1  0  0  0
 14 15  1  0  0  0
 14 65  1  0  0  0
 14 66  1  0  0  0
 15 16  1  0  0  0
 15 27  1  0  0  0
 15 67  1  0  0  0
 16 17  1  0  0  0
 17 18  1  0  0  0
 17 68  1  0  0  0
 17 69  1  0  0  0
 18 19  1  0  0  0
 18 70  1  0  0  0
 18 71  1  0  0  0
 19 20  1  0  0  0
 19 72  1  0  0  0
 19 73  1  0  0  0
 20 21  1  0  0  0
 20 74  1  0  0  0
 20 75  1  0  0  0
 21 22  1  0  0  0
 21 76  1  0  0  0
 21 77  1  0  0  0
 22 23  1  0  0  0
 22 78  1  0  0  0
 22 79  1  0  0  0
 23 24  1  0  0  0
 23 80  1  0  0  0
 23 81  1  0  0  0
 24 25  1  0  0  0
 24 82  1  0  0  0
 24 83  1  0  0  0
 25 26  1  0  0  0
 25 84  1  0  0  0
 25 85  1  0  0  0
 26 86  1  0  0  0
 26 87  1  0  0  0
 26 88  1  0  0  0
 27 28  1  0  0  0
 27 89  1  0  0  0
 27 90  1  0  0  0
 28 29  1  0  0  0
 28 91  1  0  0  0
 28 92  1  0  0  0
 29 30  1  0  0  0
 30 31  1  0  0  0
 30 93  1  0  0  0
 30 94  1  0  0  0
 31 32  1  0  0  0
 31 95  1  0  0  0
 31 96  1  0  0  0
 32 33  1  0  0  0
 32 97  1  0  0  0
 32 98  1  0  0  0
 33 34  1  0  0  0
 33 99  1  0  0  0
 33100  1  0  0  0
 34 35  1  0  0  0
 34101  1  0  0  0
 34102  1  0  0  0
 35 36  1  0  0  0
 35103  1  0  0  0
 35104  1  0  0  0
 36 37  1  0  0  0
 36105  1  0  0  0
 36106  1  0  0  0
 37 38  1  0  0  0
 37107  1  0  0  0
 37108  1  0  0  0
 38 39  1  0  0  0
 38109  1  0  0  0
 38110  1  0  0  0
 39111  1  0  0  0
 39112  1  0  0  0
 39113  1  0  0  0
M  END
