C:\Mis documentos\Gara\Polímeros (Tg)\Base de datos polímeros\047 trimer poly(oxyoctamethylene).hin
 OpenBabel04231221473D

 77 76  0  0  0  0  0  0  0  0999 V2000
    6.7006  -12.7256   -0.0000 C   0  0  0  0  0
    6.7799  -11.2209    0.0000 C   0  0  0  0  0
    5.4028  -10.5916   -0.0000 C   0  0  0  0  0
    5.4879   -9.0805    0.0000 C   0  0  0  0  0
    4.1108   -8.4521   -0.0000 C   0  0  0  0  0
    4.1979   -6.9408    0.0000 C   0  0  0  0  0
    2.8206   -6.3153   -0.0000 C   0  0  0  0  0
    2.9262   -4.8007    0.0000 C   0  0  0  0  0
    1.5919   -4.2973   -0.0000 O   0  0  0  0  0
    1.5559   -2.8716    0.0000 C   0  0  0  0  0
    0.0908   -2.4731   -0.0000 C   0  0  0  0  0
   -0.0474   -0.9668    0.0000 C   0  0  0  0  0
   -1.5037   -0.5536   -0.0000 C   0  0  0  0  0
   -1.6463    0.9534    0.0000 C   0  0  0  0  0
   -3.1029    1.3655   -0.0000 C   0  0  0  0  0
   -3.2433    2.8717    0.0000 C   0  0  0  0  0
   -4.7093    3.2668   -0.0000 C   0  0  0  0  0
   -4.7491    4.6924    0.0000 O   0  0  0  0  0
   -6.0850    5.1917   -0.0000 C   0  0  0  0  0
   -5.9841    6.7067    0.0000 C   0  0  0  0  0
   -7.3636    7.3272   -0.0000 C   0  0  0  0  0
   -7.2823    8.8388    0.0000 C   0  0  0  0  0
   -8.6624    9.4606   -0.0000 C   0  0  0  0  0
   -8.5842   10.9724    0.0000 C   0  0  0  0  0
   -9.9656   11.5878   -0.0000 C   0  0  0  0  0
   -9.8758   13.1041    0.0000 C   0  0  0  0  0
  -11.2057   13.5999   -0.0000 O   0  0  0  0  0
    7.7257  -13.1685    0.0000 H   0  0  0  0  0
    6.1581  -13.0920    0.9049 H   0  0  0  0  0
    6.1581  -13.0920   -0.9049 H   0  0  0  0  0
    7.3492  -10.8734    0.9025 H   0  0  0  0  0
    7.3492  -10.8734   -0.9025 H   0  0  0  0  0
    4.8326  -10.9366   -0.9026 H   0  0  0  0  0
    4.8326  -10.9366    0.9026 H   0  0  0  0  0
    6.0585   -8.7361    0.9026 H   0  0  0  0  0
    6.0585   -8.7361   -0.9026 H   0  0  0  0  0
    3.5399   -8.7958   -0.9026 H   0  0  0  0  0
    3.5399   -8.7958    0.9026 H   0  0  0  0  0
    4.7688   -6.5974    0.9030 H   0  0  0  0  0
    4.7688   -6.5974   -0.9030 H   0  0  0  0  0
    2.2435   -6.6467   -0.9022 H   0  0  0  0  0
    2.2435   -6.6467    0.9022 H   0  0  0  0  0
    3.4673   -4.4349    0.9134 H   0  0  0  0  0
    3.4673   -4.4349   -0.9134 H   0  0  0  0  0
    2.0793   -2.4810   -0.9134 H   0  0  0  0  0
    2.0793   -2.4810    0.9134 H   0  0  0  0  0
   -0.4118   -2.9092   -0.9022 H   0  0  0  0  0
   -0.4118   -2.9092    0.9022 H   0  0  0  0  0
    0.4643   -0.5402    0.9030 H   0  0  0  0  0
    0.4643   -0.5402   -0.9029 H   0  0  0  0  0
   -2.0154   -0.9804   -0.9027 H   0  0  0  0  0
   -2.0154   -0.9804    0.9027 H   0  0  0  0  0
   -1.1349    1.3804    0.9027 H   0  0  0  0  0
   -1.1349    1.3804   -0.9027 H   0  0  0  0  0
   -3.6142    0.9384   -0.9030 H   0  0  0  0  0
   -3.6142    0.9384    0.9030 H   0  0  0  0  0
   -2.7416    3.3086    0.9022 H   0  0  0  0  0
   -2.7415    3.3086   -0.9022 H   0  0  0  0  0
   -5.2318    2.8749   -0.9134 H   0  0  0  0  0
   -5.2318    2.8749    0.9134 H   0  0  0  0  0
   -6.6250    4.8243    0.9134 H   0  0  0  0  0
   -6.6250    4.8243   -0.9134 H   0  0  0  0  0
   -5.4082    7.0398    0.9022 H   0  0  0  0  0
   -5.4081    7.0399   -0.9022 H   0  0  0  0  0
   -7.9333    6.9817   -0.9030 H   0  0  0  0  0
   -7.9333    6.9817    0.9030 H   0  0  0  0  0
   -6.7129    9.1847    0.9027 H   0  0  0  0  0
   -6.7129    9.1847   -0.9027 H   0  0  0  0  0
   -9.2316    9.1140   -0.9027 H   0  0  0  0  0
   -9.2316    9.1140    0.9027 H   0  0  0  0  0
   -8.0154   11.3192    0.9030 H   0  0  0  0  0
   -8.0154   11.3192   -0.9029 H   0  0  0  0  0
  -10.5406   11.2524   -0.9021 H   0  0  0  0  0
  -10.5406   11.2524    0.9021 H   0  0  0  0  0
   -9.3321   13.4683    0.9130 H   0  0  0  0  0
   -9.3321   13.4683   -0.9130 H   0  0  0  0  0
  -11.1405   14.5613    0.0000 H   0  0  0  0  0
  1  2  1  0  0  0
  1 28  1  0  0  0
  1 29  1  0  0  0
  1 30  1  0  0  0
  2  3  1  0  0  0
  2 31  1  0  0  0
  2 32  1  0  0  0
  3  4  1  0  0  0
  3 33  1  0  0  0
  3 34  1  0  0  0
  4  5  1  0  0  0
  4 35  1  0  0  0
  4 36  1  0  0  0
  5  6  1  0  0  0
  5 37  1  0  0  0
  5 38  1  0  0  0
  6  7  1  0  0  0
  6 39  1  0  0  0
  6 40  1  0  0  0
  7  8  1  0  0  0
  7 41  1  0  0  0
  7 42  1  0  0  0
  8  9  1  0  0  0
  8 43  1  0  0  0
  8 44  1  0  0  0
  9 10  1  0  0  0
 10 11  1  0  0  0
 10 45  1  0  0  0
 10 46  1  0  0  0
 11 12  1  0  0  0
 11 47  1  0  0  0
 11 48  1  0  0  0
 12 13  1  0  0  0
 12 49  1  0  0  0
 12 50  1  0  0  0
 13 14  1  0  0  0
 13 51  1  0  0  0
 13 52  1  0  0  0
 14 15  1  0  0  0
 14 53  1  0  0  0
 14 54  1  0  0  0
 15 16  1  0  0  0
 15 55  1  0  0  0
 15 56  1  0  0  0
 16 17  1  0  0  0
 16 57  1  0  0  0
 16 58  1  0  0  0
 17 18  1  0  0  0
 17 59  1  0  0  0
 17 60  1  0  0  0
 18 19  1  0  0  0
 19 20  1  0  0  0
 19 61  1  0  0  0
 19 62  1  0  0  0
 20 21  1  0  0  0
 20 63  1  0  0  0
 20 64  1  0  0  0
 21 22  1  0  0  0
 21 65  1  0  0  0
 21 66  1  0  0  0
 22 23  1  0  0  0
 22 67  1  0  0  0
 22 68  1  0  0  0
 23 24  1  0  0  0
 23 69  1  0  0  0
 23 70  1  0  0  0
 24 25  1  0  0  0
 24 71  1  0  0  0
 24 72  1  0  0  0
 25 26  1  0  0  0
 25 73  1  0  0  0
 25 74  1  0  0  0
 26 27  1  0  0  0
 26 75  1  0  0  0
 26 76  1  0  0  0
 27 77  1  0  0  0
M  END
