C:\Mis documentos\Gara\Polímeros (Tg)\Base de datos polímeros\048 trimer poly(oxyhexamethylene).hin
 OpenBabel04231221483D

 59 58  0  0  0  0  0  0  0  0999 V2000
    4.7337   -9.8527    0.0000 C   0  0  0  0  0
    4.8154   -8.3481    0.0000 C   0  0  0  0  0
    3.4392   -7.7170   -0.0000 C   0  0  0  0  0
    3.5273   -6.2059    0.0000 C   0  0  0  0  0
    2.1505   -5.5795   -0.0000 C   0  0  0  0  0
    2.2569   -4.0649    0.0000 C   0  0  0  0  0
    0.9226   -3.5614   -0.0000 O   0  0  0  0  0
    0.8862   -2.1358    0.0000 C   0  0  0  0  0
   -0.5792   -1.7386   -0.0000 C   0  0  0  0  0
   -0.7190   -0.2325    0.0000 C   0  0  0  0  0
   -2.1763    0.1777   -0.0000 C   0  0  0  0  0
   -2.3176    1.6837    0.0000 C   0  0  0  0  0
   -3.7839    2.0777   -0.0000 C   0  0  0  0  0
   -3.8244    3.5033    0.0000 O   0  0  0  0  0
   -5.1606    4.0016   -0.0000 C   0  0  0  0  0
   -5.0606    5.5167    0.0000 C   0  0  0  0  0
   -6.4409    6.1354   -0.0000 C   0  0  0  0  0
   -6.3612    7.6471    0.0000 C   0  0  0  0  0
   -7.7426    8.2628   -0.0000 C   0  0  0  0  0
   -7.6520    9.7790    0.0000 C   0  0  0  0  0
   -8.9818   10.2750   -0.0000 O   0  0  0  0  0
    5.7581  -10.2972    0.0000 H   0  0  0  0  0
    4.1906  -10.2182    0.9049 H   0  0  0  0  0
    4.1906  -10.2182   -0.9050 H   0  0  0  0  0
    5.3853   -8.0016    0.9025 H   0  0  0  0  0
    5.3853   -8.0016   -0.9025 H   0  0  0  0  0
    2.8683   -8.0606   -0.9026 H   0  0  0  0  0
    2.8683   -8.0606    0.9026 H   0  0  0  0  0
    4.0985   -5.8629    0.9030 H   0  0  0  0  0
    4.0985   -5.8629   -0.9029 H   0  0  0  0  0
    1.5733   -5.9104   -0.9022 H   0  0  0  0  0
    1.5733   -5.9104    0.9022 H   0  0  0  0  0
    2.7980   -3.6992    0.9134 H   0  0  0  0  0
    2.7980   -3.6992   -0.9134 H   0  0  0  0  0
    1.4094   -1.7448   -0.9134 H   0  0  0  0  0
    1.4094   -1.7448    0.9134 H   0  0  0  0  0
   -1.0812   -2.1754   -0.9023 H   0  0  0  0  0
   -1.0812   -2.1754    0.9023 H   0  0  0  0  0
   -0.2084    0.1952    0.9030 H   0  0  0  0  0
   -0.2084    0.1952   -0.9030 H   0  0  0  0  0
   -2.6868   -0.2502   -0.9030 H   0  0  0  0  0
   -2.6868   -0.2502    0.9030 H   0  0  0  0  0
   -1.8162    2.1211    0.9023 H   0  0  0  0  0
   -1.8162    2.1212   -0.9023 H   0  0  0  0  0
   -4.3060    1.6855   -0.9134 H   0  0  0  0  0
   -4.3060    1.6855    0.9134 H   0  0  0  0  0
   -5.7003    3.6341    0.9134 H   0  0  0  0  0
   -5.7003    3.6341   -0.9134 H   0  0  0  0  0
   -4.4849    5.8503    0.9023 H   0  0  0  0  0
   -4.4849    5.8503   -0.9023 H   0  0  0  0  0
   -7.0103    5.7897   -0.9031 H   0  0  0  0  0
   -7.0103    5.7897    0.9030 H   0  0  0  0  0
   -5.7921    7.9934    0.9030 H   0  0  0  0  0
   -5.7921    7.9934   -0.9030 H   0  0  0  0  0
   -8.3177    7.9277   -0.9021 H   0  0  0  0  0
   -8.3177    7.9277    0.9021 H   0  0  0  0  0
   -7.1082   10.1430    0.9131 H   0  0  0  0  0
   -7.1082   10.1430   -0.9131 H   0  0  0  0  0
   -8.9163   11.2365    0.0000 H   0  0  0  0  0
  1  2  1  0  0  0
  1 22  1  0  0  0
  1 23  1  0  0  0
  1 24  1  0  0  0
  2  3  1  0  0  0
  2 25  1  0  0  0
  2 26  1  0  0  0
  3  4  1  0  0  0
  3 27  1  0  0  0
  3 28  1  0  0  0
  4  5  1  0  0  0
  4 29  1  0  0  0
  4 30  1  0  0  0
  5  6  1  0  0  0
  5 31  1  0  0  0
  5 32  1  0  0  0
  6  7  1  0  0  0
  6 33  1  0  0  0
  6 34  1  0  0  0
  7  8  1  0  0  0
  8  9  1  0  0  0
  8 35  1  0  0  0
  8 36  1  0  0  0
  9 10  1  0  0  0
  9 37  1  0  0  0
  9 38  1  0  0  0
 10 11  1  0  0  0
 10 39  1  0  0  0
 10 40  1  0  0  0
 11 12  1  0  0  0
 11 41  1  0  0  0
 11 42  1  0  0  0
 12 13  1  0  0  0
 12 43  1  0  0  0
 12 44  1  0  0  0
 13 14  1  0  0  0
 13 45  1  0  0  0
 13 46  1  0  0  0
 14 15  1  0  0  0
 15 16  1  0  0  0
 15 47  1  0  0  0
 15 48  1  0  0  0
 16 17  1  0  0  0
 16 49  1  0  0  0
 16 50  1  0  0  0
 17 18  1  0  0  0
 17 51  1  0  0  0
 17 52  1  0  0  0
 18 19  1  0  0  0
 18 53  1  0  0  0
 18 54  1  0  0  0
 19 20  1  0  0  0
 19 55  1  0  0  0
 19 56  1  0  0  0
 20 21  1  0  0  0
 20 57  1  0  0  0
 20 58  1  0  0  0
 21 59  1  0  0  0
M  END
