C:\Mis documentos\Gara\Polímeros (Tg)\Base de datos polímeros\049 trimer poly(vinyl n-pentyl ether).hin
 OpenBabel04231221483D

 68 67  0  0  0  0  0  0  0  0999 V2000
   -2.6491   -3.3407   -1.2050 C   0  0  0  0  0
   -2.7202   -1.9274   -0.6544 C   0  0  0  0  0
   -3.6485   -1.8665    0.4360 O   0  0  0  0  0
   -5.0130   -1.8255    0.0282 C   0  0  0  0  0
   -5.8248   -1.5519    1.2831 C   0  0  0  0  0
   -7.2999   -1.4820    0.9577 C   0  0  0  0  0
   -8.1206   -1.2168    2.2023 C   0  0  0  0  0
   -9.5922   -1.1399    1.8881 C   0  0  0  0  0
   -1.3761   -1.4876   -0.0731 C   0  0  0  0  0
   -0.9964   -0.0492   -0.4255 C   0  0  0  0  0
   -1.1792    0.8149    0.7008 O   0  0  0  0  0
   -2.5418    1.1812    0.9128 C   0  0  0  0  0
   -2.5788    1.9993    2.1915 C   0  0  0  0  0
   -3.9981    2.4201    2.5027 C   0  0  0  0  0
   -4.0624    3.2267    3.7822 C   0  0  0  0  0
   -5.4731    3.6531    4.0964 C   0  0  0  0  0
    0.4866    0.0382   -0.7804 C   0  0  0  0  0
    0.8601    1.4493   -1.1958 C   0  0  0  0  0
    2.2449    1.4179   -1.5382 O   0  0  0  0  0
    2.7601    2.7197   -1.8090 C   0  0  0  0  0
    4.2336    2.5461   -2.1315 C   0  0  0  0  0
    4.8766    3.8874   -2.4058 C   0  0  0  0  0
    6.3490    3.7329   -2.7232 C   0  0  0  0  0
    6.9987    5.0654   -2.9932 C   0  0  0  0  0
   -1.8933   -3.3929   -2.0241 H   0  0  0  0  0
   -2.3611   -4.0556   -0.3978 H   0  0  0  0  0
   -3.6412   -3.6493   -1.6127 H   0  0  0  0  0
   -3.0549   -1.2251   -1.4696 H   0  0  0  0  0
   -5.1649   -1.0120   -0.7309 H   0  0  0  0  0
   -5.2988   -2.8091   -0.4299 H   0  0  0  0  0
   -5.6306   -2.3621    2.0332 H   0  0  0  0  0
   -5.4809   -0.5871    1.7414 H   0  0  0  0  0
   -7.4841   -0.6691    0.2065 H   0  0  0  0  0
   -7.6301   -2.4467    0.4892 H   0  0  0  0  0
   -7.9367   -2.0322    2.9511 H   0  0  0  0  0
   -7.7844   -0.2552    2.6730 H   0  0  0  0  0
  -10.1776   -0.9451    2.8189 H   0  0  0  0  0
   -9.7985   -0.3159    1.1629 H   0  0  0  0  0
   -9.9508   -2.0981    1.4400 H   0  0  0  0  0
   -0.5800   -2.1828   -0.4465 H   0  0  0  0  0
   -1.4134   -1.5867    1.0455 H   0  0  0  0  0
   -1.6137    0.3286   -1.2890 H   0  0  0  0  0
   -2.9016    1.7886    0.0391 H   0  0  0  0  0
   -3.1757    0.2576    1.0058 H   0  0  0  0  0
   -2.1616    1.3884    3.0339 H   0  0  0  0  0
   -1.9222    2.9005    2.0784 H   0  0  0  0  0
   -4.4062    3.0302    1.6539 H   0  0  0  0  0
   -4.6485    1.5099    2.5985 H   0  0  0  0  0
   -3.6555    2.6144    4.6300 H   0  0  0  0  0
   -3.4071    4.1325    3.6856 H   0  0  0  0  0
   -5.4976    4.2464    5.0421 H   0  0  0  0  0
   -5.8873    4.2842    3.2732 H   0  0  0  0  0
   -6.1358    2.7627    4.2215 H   0  0  0  0  0
    0.7063   -0.6721   -1.6181 H   0  0  0  0  0
    1.1048   -0.2635    0.1038 H   0  0  0  0  0
    0.2655    1.7798   -2.0891 H   0  0  0  0  0
    0.6841    2.1671   -0.3509 H   0  0  0  0  0
    2.2076    3.1696   -2.6768 H   0  0  0  0  0
    2.6203    3.3769   -0.9093 H   0  0  0  0  0
    4.7435    2.0402   -1.2706 H   0  0  0  0  0
    4.3422    1.8740   -3.0220 H   0  0  0  0  0
    4.3576    4.3868   -3.2661 H   0  0  0  0  0
    4.7539    4.5552   -1.5124 H   0  0  0  0  0
    6.8650    3.2289   -1.8636 H   0  0  0  0  0
    6.4700    3.0658   -3.6174 H   0  0  0  0  0
    8.0826    4.9287   -3.2246 H   0  0  0  0  0
    6.5137    5.5722   -3.8623 H   0  0  0  0  0
    6.9098    5.7352   -2.1038 H   0  0  0  0  0
  1  2  1  0  0  0
  1 25  1  0  0  0
  1 26  1  0  0  0
  1 27  1  0  0  0
  2  3  1  0  0  0
  2  9  1  0  0  0
  2 28  1  0  0  0
  3  4  1  0  0  0
  4  5  1  0  0  0
  4 29  1  0  0  0
  4 30  1  0  0  0
  5  6  1  0  0  0
  5 31  1  0  0  0
  5 32  1  0  0  0
  6  7  1  0  0  0
  6 33  1  0  0  0
  6 34  1  0  0  0
  7  8  1  0  0  0
  7 35  1  0  0  0
  7 36  1  0  0  0
  8 37  1  0  0  0
  8 38  1  0  0  0
  8 39  1  0  0  0
  9 10  1  0  0  0
  9 40  1  0  0  0
  9 41  1  0  0  0
 10 11  1  0  0  0
 10 17  1  0  0  0
 10 42  1  0  0  0
 11 12  1  0  0  0
 12 13  1  0  0  0
 12 43  1  0  0  0
 12 44  1  0  0  0
 13 14  1  0  0  0
 13 45  1  0  0  0
 13 46  1  0  0  0
 14 15  1  0  0  0
 14 47  1  0  0  0
 14 48  1  0  0  0
 15 16  1  0  0  0
 15 49  1  0  0  0
 15 50  1  0  0  0
 16 51  1  0  0  0
 16 52  1  0  0  0
 16 53  1  0  0  0
 17 18  1  0  0  0
 17 54  1  0  0  0
 17 55  1  0  0  0
 18 19  1  0  0  0
 18 56  1  0  0  0
 18 57  1  0  0  0
 19 20  1  0  0  0
 20 21  1  0  0  0
 20 58  1  0  0  0
 20 59  1  0  0  0
 21 22  1  0  0  0
 21 60  1  0  0  0
 21 61  1  0  0  0
 22 23  1  0  0  0
 22 62  1  0  0  0
 22 63  1  0  0  0
 23 24  1  0  0  0
 23 64  1  0  0  0
 23 65  1  0  0  0
 24 66  1  0  0  0
 24 67  1  0  0  0
 24 68  1  0  0  0
M  END
