C:\Mis documentos\Gara\Polímeros (Tg)\Base de datos polímeros\050 trimer poly(vinyl 2-ethylhexyl ether).hin
 OpenBabel04231221493D

 95 94  0  0  0  0  0  0  0  0999 V2000
    1.3389    2.0501   -2.4229 C   0  0  0  0  0
    0.0017    2.1881   -1.7131 C   0  0  0  0  0
    0.0604    3.2600   -0.7653 O   0  0  0  0  0
   -0.0237    4.5583   -1.3490 C   0  0  0  0  0
   -1.2501    5.3163   -0.8371 C   0  0  0  0  0
   -2.5463    4.6332   -1.2560 C   0  0  0  0  0
   -3.1772    5.2256   -2.4981 C   0  0  0  0  0
   -2.3653    4.9999   -3.7553 C   0  0  0  0  0
   -3.1327    5.3998   -4.9894 C   0  0  0  0  0
   -1.1960    5.4727    0.6761 C   0  0  0  0  0
   -0.1504    6.4577    1.1307 C   0  0  0  0  0
   -0.3208    0.9227   -0.9231 C   0  0  0  0  0
   -1.8154    0.7086   -0.7157 C   0  0  0  0  0
   -2.4051    1.6260    0.1985 O   0  0  0  0  0
   -1.8257    1.6424    1.5039 C   0  0  0  0  0
   -2.8368    2.3117    2.4354 C   0  0  0  0  0
   -2.1984    2.5694    3.7928 C   0  0  0  0  0
   -1.2216    3.7250    3.7710 C   0  0  0  0  0
   -0.7493    4.0747    5.1668 C   0  0  0  0  0
    0.2407    5.2108    5.1419 C   0  0  0  0  0
   -4.0766    1.4386    2.5778 C   0  0  0  0  0
   -5.2822    2.2156    3.0392 C   0  0  0  0  0
   -2.1065   -0.7318   -0.2962 C   0  0  0  0  0
   -2.2672   -1.6256   -1.5119 C   0  0  0  0  0
   -2.5296   -2.9380   -1.0185 O   0  0  0  0  0
   -2.7111   -3.8795   -2.0742 C   0  0  0  0  0
   -3.0524   -5.2334   -1.4529 C   0  0  0  0  0
   -1.8777   -5.7287   -0.6229 C   0  0  0  0  0
   -2.0574   -7.1572   -0.1580 C   0  0  0  0  0
   -0.8326   -7.6501    0.5838 C   0  0  0  0  0
   -1.0112   -9.0665    1.0659 C   0  0  0  0  0
   -4.3415   -5.1505   -0.6441 C   0  0  0  0  0
   -5.2870   -6.2830   -0.9553 C   0  0  0  0  0
    2.1400    1.7887   -1.6911 H   0  0  0  0  0
    1.6141    3.0129   -2.9162 H   0  0  0  0  0
    1.2808    1.2507   -3.1985 H   0  0  0  0  0
   -0.8089    2.3923   -2.4691 H   0  0  0  0  0
    0.9141    5.0906   -1.0305 H   0  0  0  0  0
   -0.0520    4.5067   -2.4690 H   0  0  0  0  0
   -1.2087    6.3423   -1.3026 H   0  0  0  0  0
   -2.3587    3.5342   -1.3999 H   0  0  0  0  0
   -3.2963    4.7118   -0.4221 H   0  0  0  0  0
   -3.3342    6.3274   -2.3533 H   0  0  0  0  0
   -4.1925    4.7635   -2.6325 H   0  0  0  0  0
   -1.4159    5.5963   -3.6981 H   0  0  0  0  0
   -2.0743    3.9180   -3.8258 H   0  0  0  0  0
   -4.0602    4.7862   -5.0941 H   0  0  0  0  0
   -2.5068    5.2507   -5.9020 H   0  0  0  0  0
   -3.4296    6.4752   -4.9367 H   0  0  0  0  0
   -2.1981    5.8147    1.0507 H   0  0  0  0  0
   -0.9970    4.4640    1.1314 H   0  0  0  0  0
    0.8724    6.1291    0.8259 H   0  0  0  0  0
   -0.1700    6.5427    2.2457 H   0  0  0  0  0
   -0.3391    7.4685    0.6949 H   0  0  0  0  0
    0.2020    0.9642    0.0674 H   0  0  0  0  0
    0.0839    0.0423   -1.4891 H   0  0  0  0  0
   -2.3714    0.9457   -1.6721 H   0  0  0  0  0
   -1.6016    0.5999    1.8498 H   0  0  0  0  0
   -0.8754    2.2406    1.4592 H   0  0  0  0  0
   -3.1350    3.2934    1.9697 H   0  0  0  0  0
   -3.0103    2.7910    4.5363 H   0  0  0  0  0
   -1.6750    1.6410    4.1433 H   0  0  0  0  0
   -0.3352    3.4642    3.1338 H   0  0  0  0  0
   -1.7062    4.6247    3.3046 H   0  0  0  0  0
   -1.6310    4.3571    5.8009 H   0  0  0  0  0
   -0.2781    3.1731    5.6400 H   0  0  0  0  0
   -0.2092    6.1150    4.6638 H   0  0  0  0  0
    0.5532    5.4777    6.1801 H   0  0  0  0  0
    1.1513    4.9273    4.5605 H   0  0  0  0  0
   -3.8640    0.6051    3.2980 H   0  0  0  0  0
   -4.3002    0.9703    1.5809 H   0  0  0  0  0
   -6.1675    1.5389    3.1185 H   0  0  0  0  0
   -5.1047    2.6783    4.0400 H   0  0  0  0  0
   -5.5261    3.0308    2.3156 H   0  0  0  0  0
   -1.2840   -1.1297    0.3519 H   0  0  0  0  0
   -3.0516   -0.7545    0.3087 H   0  0  0  0  0
   -3.1246   -1.2848   -2.1524 H   0  0  0  0  0
   -1.3316   -1.6371   -2.1332 H   0  0  0  0  0
   -3.5449   -3.5368   -2.7444 H   0  0  0  0  0
   -1.7645   -3.9501   -2.6749 H   0  0  0  0  0
   -3.2042   -5.9435   -2.3156 H   0  0  0  0  0
   -1.7431   -5.0513    0.2616 H   0  0  0  0  0
   -0.9423   -5.6561   -1.2397 H   0  0  0  0  0
   -2.2548   -7.8216   -1.0403 H   0  0  0  0  0
   -2.9540   -7.2251    0.5138 H   0  0  0  0  0
    0.0622   -7.5918   -0.0909 H   0  0  0  0  0
   -0.6303   -6.9765    1.4582 H   0  0  0  0  0
   -1.8821   -9.1396    1.7614 H   0  0  0  0  0
   -0.0974   -9.4105    1.6079 H   0  0  0  0  0
   -1.1918   -9.7561    0.2061 H   0  0  0  0  0
   -4.0986   -5.1520    0.4514 H   0  0  0  0  0
   -4.8543   -4.1741   -0.8551 H   0  0  0  0  0
   -4.7953   -7.2703   -0.7761 H   0  0  0  0  0
   -6.1944   -6.2167   -0.3076 H   0  0  0  0  0
   -5.6138   -6.2445   -2.0228 H   0  0  0  0  0
  1  2  1  0  0  0
  1 34  1  0  0  0
  1 35  1  0  0  0
  1 36  1  0  0  0
  2  3  1  0  0  0
  2 12  1  0  0  0
  2 37  1  0  0  0
  3  4  1  0  0  0
  4  5  1  0  0  0
  4 38  1  0  0  0
  4 39  1  0  0  0
  5  6  1  0  0  0
  5 10  1  0  0  0
  5 40  1  0  0  0
  6  7  1  0  0  0
  6 41  1  0  0  0
  6 42  1  0  0  0
  7  8  1  0  0  0
  7 43  1  0  0  0
  7 44  1  0  0  0
  8  9  1  0  0  0
  8 45  1  0  0  0
  8 46  1  0  0  0
  9 47  1  0  0  0
  9 48  1  0  0  0
  9 49  1  0  0  0
 10 11  1  0  0  0
 10 50  1  0  0  0
 10 51  1  0  0  0
 11 52  1  0  0  0
 11 53  1  0  0  0
 11 54  1  0  0  0
 12 13  1  0  0  0
 12 55  1  0  0  0
 12 56  1  0  0  0
 13 14  1  0  0  0
 13 23  1  0  0  0
 13 57  1  0  0  0
 14 15  1  0  0  0
 15 16  1  0  0  0
 15 58  1  0  0  0
 15 59  1  0  0  0
 16 17  1  0  0  0
 16 21  1  0  0  0
 16 60  1  0  0  0
 17 18  1  0  0  0
 17 61  1  0  0  0
 17 62  1  0  0  0
 18 19  1  0  0  0
 18 63  1  0  0  0
 18 64  1  0  0  0
 19 20  1  0  0  0
 19 65  1  0  0  0
 19 66  1  0  0  0
 20 67  1  0  0  0
 20 68  1  0  0  0
 20 69  1  0  0  0
 21 22  1  0  0  0
 21 70  1  0  0  0
 21 71  1  0  0  0
 22 72  1  0  0  0
 22 73  1  0  0  0
 22 74  1  0  0  0
 23 24  1  0  0  0
 23 75  1  0  0  0
 23 76  1  0  0  0
 24 25  1  0  0  0
 24 77  1  0  0  0
 24 78  1  0  0  0
 25 26  1  0  0  0
 26 27  1  0  0  0
 26 79  1  0  0  0
 26 80  1  0  0  0
 27 28  1  0  0  0
 27 32  1  0  0  0
 27 81  1  0  0  0
 28 29  1  0  0  0
 28 82  1  0  0  0
 28 83  1  0  0  0
 29 30  1  0  0  0
 29 84  1  0  0  0
 29 85  1  0  0  0
 30 31  1  0  0  0
 30 86  1  0  0  0
 30 87  1  0  0  0
 31 88  1  0  0  0
 31 89  1  0  0  0
 31 90  1  0  0  0
 32 33  1  0  0  0
 32 91  1  0  0  0
 32 92  1  0  0  0
 33 93  1  0  0  0
 33 94  1  0  0  0
 33 95  1  0  0  0
M  END
