C:\Mis documentos\Gara\Polímeros (Tg)\Base de datos polímeros\051 trimer poly(n-octyl acrylate).hin
 OpenBabel04231221493D

101100  0  0  0  0  0  0  0  0999 V2000
   -4.4386   -1.8886   -3.1966 C   0  0  0  0  0
   -3.0503   -1.5883   -2.6760 C   0  0  0  0  0
   -4.6425   -3.3304   -3.5403 C   0  0  0  0  0
   -5.6782   -3.8643   -3.9435 O   0  0  0  0  0
   -3.5333   -4.1130   -3.3794 O   0  0  0  0  0
   -3.6828   -5.5125   -3.6792 C   0  0  0  0  0
   -2.3386   -6.1472   -3.3770 C   0  0  0  0  0
   -2.4013   -7.6421   -3.6027 C   0  0  0  0  0
   -1.0652   -8.2895   -3.3070 C   0  0  0  0  0
   -1.1231   -9.7883   -3.5102 C   0  0  0  0  0
    0.2146  -10.4325   -3.2156 C   0  0  0  0  0
    0.1588  -11.9330   -3.4087 C   0  0  0  0  0
    1.4895  -12.5775   -3.1181 C   0  0  0  0  0
   -2.9226   -0.1418   -2.2168 C   0  0  0  0  0
   -1.4676    0.2090   -1.9176 C   0  0  0  0  0
   -3.7971    0.0905   -1.0085 C   0  0  0  0  0
   -4.8615    0.7103   -0.9690 O   0  0  0  0  0
   -3.3265   -0.4847    0.1385 O   0  0  0  0  0
   -4.0216   -0.1991    1.3615 C   0  0  0  0  0
   -3.5883    1.1507    1.8994 C   0  0  0  0  0
   -4.2240    1.4313    3.2422 C   0  0  0  0  0
   -3.7342    2.7515    3.7978 C   0  0  0  0  0
   -4.3972    3.0794    5.1180 C   0  0  0  0  0
   -3.8469    4.3655    5.6957 C   0  0  0  0  0
   -4.5330    4.7295    6.9949 C   0  0  0  0  0
   -3.9461    5.9815    7.5941 C   0  0  0  0  0
   -0.9429    1.3385   -2.7931 C   0  0  0  0  0
    0.5693    1.4149   -2.7114 C   0  0  0  0  0
   -1.5369    2.6661   -2.3943 C   0  0  0  0  0
   -2.1536    3.4566   -3.1107 O   0  0  0  0  0
   -1.3299    2.9948   -1.0849 O   0  0  0  0  0
   -1.8737    4.2526   -0.6427 C   0  0  0  0  0
   -1.5489    4.3491    0.8360 C   0  0  0  0  0
   -1.9648    5.6997    1.3772 C   0  0  0  0  0
   -1.6022    5.8324    2.8410 C   0  0  0  0  0
   -1.9975    7.1888    3.3844 C   0  0  0  0  0
   -1.5980    7.3350    4.8370 C   0  0  0  0  0
   -1.9857    8.6929    5.3828 C   0  0  0  0  0
   -1.5782    8.8434    6.8258 C   0  0  0  0  0
   -5.2134   -1.6079   -2.4305 H   0  0  0  0  0
   -4.6497   -1.2880   -4.1229 H   0  0  0  0  0
   -2.8059   -2.2747   -1.8218 H   0  0  0  0  0
   -2.3003   -1.7855   -3.4872 H   0  0  0  0  0
   -4.4996   -5.9357   -3.0386 H   0  0  0  0  0
   -3.9665   -5.6222   -4.7578 H   0  0  0  0  0
   -1.5531   -5.6892   -4.0328 H   0  0  0  0  0
   -2.0531   -5.9284   -2.3149 H   0  0  0  0  0
   -3.1914   -8.0909   -2.9444 H   0  0  0  0  0
   -2.6957   -7.8525   -4.6648 H   0  0  0  0  0
   -0.2783   -7.8494   -3.9748 H   0  0  0  0  0
   -0.7646   -8.0650   -2.2495 H   0  0  0  0  0
   -1.9085  -10.2288   -2.8408 H   0  0  0  0  0
   -1.4251  -10.0139   -4.5669 H   0  0  0  0  0
    0.9987   -9.9963   -3.8892 H   0  0  0  0  0
    0.5195  -10.2012   -2.1609 H   0  0  0  0  0
   -0.6257  -12.3674   -2.7341 H   0  0  0  0  0
   -0.1491  -12.1628   -4.4631 H   0  0  0  0  0
    1.4260  -13.6827   -3.2653 H   0  0  0  0  0
    2.2793  -12.1760   -3.7981 H   0  0  0  0  0
    1.8021  -12.3795   -2.0642 H   0  0  0  0  0
   -3.3220    0.5371   -3.0262 H   0  0  0  0  0
   -1.3496    0.4978   -0.8383 H   0  0  0  0  0
   -0.8218   -0.6947   -2.0843 H   0  0  0  0  0
   -5.1292   -0.2335    1.1943 H   0  0  0  0  0
   -3.7004   -1.0376    2.0355 H   0  0  0  0  0
   -2.4703    1.1742    1.9897 H   0  0  0  0  0
   -3.8804    1.9461    1.1624 H   0  0  0  0  0
   -5.3404    1.4569    3.1341 H   0  0  0  0  0
   -3.9778    0.6052    3.9604 H   0  0  0  0  0
   -2.6207    2.7101    3.9351 H   0  0  0  0  0
   -3.9427    3.5705    3.0583 H   0  0  0  0  0
   -5.5051    3.1751    4.9697 H   0  0  0  0  0
   -4.2318    2.2395    5.8432 H   0  0  0  0  0
   -2.7435    4.2562    5.8710 H   0  0  0  0  0
   -3.9792    5.1989    4.9545 H   0  0  0  0  0
   -5.6297    4.8774    6.8093 H   0  0  0  0  0
   -4.4332    3.8806    7.7220 H   0  0  0  0  0
   -4.4810    6.2497    8.5367 H   0  0  0  0  0
   -2.8639    5.8352    7.8309 H   0  0  0  0  0
   -4.0315    6.8389    6.8816 H   0  0  0  0  0
   -1.2460    1.1580   -3.8645 H   0  0  0  0  0
    1.0183    0.4552   -3.0633 H   0  0  0  0  0
    0.9506    2.2446   -3.3540 H   0  0  0  0  0
    0.8914    1.6005   -1.6582 H   0  0  0  0  0
   -1.3948    5.0769   -1.2323 H   0  0  0  0  0
   -2.9787    4.2573   -0.8311 H   0  0  0  0  0
   -2.0807    3.5300    1.3913 H   0  0  0  0  0
   -0.4487    4.1937    0.9872 H   0  0  0  0  0
   -1.4625    6.5136    0.7902 H   0  0  0  0  0
   -3.0716    5.8325    1.2494 H   0  0  0  0  0
   -2.1181    5.0268    3.4319 H   0  0  0  0  0
   -0.4978    5.6827    2.9698 H   0  0  0  0  0
   -1.5095    7.9957    2.7766 H   0  0  0  0  0
   -3.1071    7.3238    3.2848 H   0  0  0  0  0
   -2.0956    6.5320    5.4468 H   0  0  0  0  0
   -0.4902    7.1912    4.9395 H   0  0  0  0  0
   -1.5022    9.4967    4.7673 H   0  0  0  0  0
   -3.0962    8.8277    5.2902 H   0  0  0  0  0
   -1.8718    9.8498    7.2101 H   0  0  0  0  0
   -2.0754    8.0648    7.4560 H   0  0  0  0  0
   -0.4727    8.7315    6.9379 H   0  0  0  0  0
  1  2  1  0  0  0
  1  3  1  0  0  0
  1 40  1  0  0  0
  1 41  1  0  0  0
  2 14  1  0  0  0
  2 42  1  0  0  0
  2 43  1  0  0  0
  3  4  2  0  0  0
  3  5  1  0  0  0
  5  6  1  0  0  0
  6  7  1  0  0  0
  6 44  1  0  0  0
  6 45  1  0  0  0
  7  8  1  0  0  0
  7 46  1  0  0  0
  7 47  1  0  0  0
  8  9  1  0  0  0
  8 48  1  0  0  0
  8 49  1  0  0  0
  9 10  1  0  0  0
  9 50  1  0  0  0
  9 51  1  0  0  0
 10 11  1  0  0  0
 10 52  1  0  0  0
 10 53  1  0  0  0
 11 12  1  0  0  0
 11 54  1  0  0  0
 11 55  1  0  0  0
 12 13  1  0  0  0
 12 56  1  0  0  0
 12 57  1  0  0  0
 13 58  1  0  0  0
 13 59  1  0  0  0
 13 60  1  0  0  0
 14 15  1  0  0  0
 14 16  1  0  0  0
 14 61  1  0  0  0
 15 27  1  0  0  0
 15 62  1  0  0  0
 15 63  1  0  0  0
 16 17  2  0  0  0
 16 18  1  0  0  0
 18 19  1  0  0  0
 19 20  1  0  0  0
 19 64  1  0  0  0
 19 65  1  0  0  0
 20 21  1  0  0  0
 20 66  1  0  0  0
 20 67  1  0  0  0
 21 22  1  0  0  0
 21 68  1  0  0  0
 21 69  1  0  0  0
 22 23  1  0  0  0
 22 70  1  0  0  0
 22 71  1  0  0  0
 23 24  1  0  0  0
 23 72  1  0  0  0
 23 73  1  0  0  0
 24 25  1  0  0  0
 24 74  1  0  0  0
 24 75  1  0  0  0
 25 26  1  0  0  0
 25 76  1  0  0  0
 25 77  1  0  0  0
 26 78  1  0  0  0
 26 79  1  0  0  0
 26 80  1  0  0  0
 27 28  1  0  0  0
 27 29  1  0  0  0
 27 81  1  0  0  0
 28 82  1  0  0  0
 28 83  1  0  0  0
 28 84  1  0  0  0
 29 30  2  0  0  0
 29 31  1  0  0  0
 31 32  1  0  0  0
 32 33  1  0  0  0
 32 85  1  0  0  0
 32 86  1  0  0  0
 33 34  1  0  0  0
 33 87  1  0  0  0
 33 88  1  0  0  0
 34 35  1  0  0  0
 34 89  1  0  0  0
 34 90  1  0  0  0
 35 36  1  0  0  0
 35 91  1  0  0  0
 35 92  1  0  0  0
 36 37  1  0  0  0
 36 93  1  0  0  0
 36 94  1  0  0  0
 37 38  1  0  0  0
 37 95  1  0  0  0
 37 96  1  0  0  0
 38 39  1  0  0  0
 38 97  1  0  0  0
 38 98  1  0  0  0
 39 99  1  0  0  0
 39100  1  0  0  0
 39101  1  0  0  0
M  END
