C:\Mis documentos\Gara\Polímeros (Tg)\Base de datos polímeros\052 trimer poly(n-octyl methylacrylate).hin
 OpenBabel04231221493D

110109  0  0  0  0  0  0  0  0999 V2000
   -2.5638   -4.8256   -0.5971 C   0  0  0  0  0
   -2.6470   -3.3172   -0.8703 C   0  0  0  0  0
   -3.4223   -3.1221   -2.1653 C   0  0  0  0  0
   -3.3765   -2.7127    0.3108 C   0  0  0  0  0
   -4.4740   -1.9687   -0.0213 O   0  0  0  0  0
   -3.1115   -2.8647    1.5062 O   0  0  0  0  0
   -5.2697   -1.4384    1.0502 C   0  0  0  0  0
   -4.6509   -0.1758    1.6170 C   0  0  0  0  0
   -5.3600    0.2386    2.8874 C   0  0  0  0  0
   -4.6286    1.3700    3.5779 C   0  0  0  0  0
   -5.2902    1.7236    4.8927 C   0  0  0  0  0
   -4.4848    2.7523    5.6568 C   0  0  0  0  0
   -5.1184    3.0617    6.9967 C   0  0  0  0  0
   -4.3091    4.0688    7.7722 C   0  0  0  0  0
   -1.2075   -2.8012   -0.9802 C   0  0  0  0  0
   -0.8867   -1.3057   -0.8549 C   0  0  0  0  0
   -1.9022   -0.4126   -1.5444 C   0  0  0  0  0
   -0.7982   -0.8916    0.6051 C   0  0  0  0  0
   -1.3257    0.0891    1.1351 O   0  0  0  0  0
    0.0115   -1.6875    1.3655 O   0  0  0  0  0
    0.1863   -1.3296    2.7460 C   0  0  0  0  0
   -1.0296   -1.6935    3.5751 C   0  0  0  0  0
   -0.9315   -1.0857    4.9570 C   0  0  0  0  0
   -2.2246   -1.2579    5.7255 C   0  0  0  0  0
   -2.1735   -0.5262    7.0499 C   0  0  0  0  0
   -3.4768   -0.6647    7.8069 C   0  0  0  0  0
   -3.4594    0.1439    9.0868 C   0  0  0  0  0
   -4.7537    0.0049    9.8458 C   0  0  0  0  0
    0.5056   -1.1063   -1.4846 C   0  0  0  0  0
    1.0635    0.3047   -1.3715 C   0  0  0  0  0
    2.5812    0.2778   -1.4067 C   0  0  0  0  0
    0.5759    1.2237   -2.4628 C   0  0  0  0  0
    0.2359    2.4030   -2.3463 O   0  0  0  0  0
    0.5474    0.6659   -3.7114 O   0  0  0  0  0
    0.1079    1.5234   -4.7807 C   0  0  0  0  0
   -0.0133    0.6437   -6.0102 C   0  0  0  0  0
   -0.5132    1.4618   -7.1812 C   0  0  0  0  0
   -0.6888    0.6026   -8.4148 C   0  0  0  0  0
   -1.2021    1.4217   -9.5798 C   0  0  0  0  0
   -1.4044    0.5638  -10.8100 C   0  0  0  0  0
   -1.9214    1.3842  -11.9728 C   0  0  0  0  0
   -2.1344    0.5341  -13.1985 C   0  0  0  0  0
   -2.0836   -5.0138    0.3936 H   0  0  0  0  0
   -3.5865   -5.2719   -0.5893 H   0  0  0  0  0
   -1.9618   -5.3181   -1.3969 H   0  0  0  0  0
   -3.6200   -2.0431   -2.3655 H   0  0  0  0  0
   -2.8479   -3.5529   -3.0200 H   0  0  0  0  0
   -4.4094   -3.6412   -2.0958 H   0  0  0  0  0
   -6.2529   -1.2301    0.5494 H   0  0  0  0  0
   -5.3959   -2.2184    1.8462 H   0  0  0  0  0
   -3.5614   -0.3624    1.8270 H   0  0  0  0  0
   -4.7010    0.6466    0.8575 H   0  0  0  0  0
   -6.4107    0.5523    2.6525 H   0  0  0  0  0
   -5.4223   -0.6393    3.5853 H   0  0  0  0  0
   -3.5633    1.0652    3.7623 H   0  0  0  0  0
   -4.6038    2.2701    2.9097 H   0  0  0  0  0
   -6.3234    2.1164    4.7028 H   0  0  0  0  0
   -5.3978    0.7969    5.5180 H   0  0  0  0  0
   -3.4425    2.3670    5.8184 H   0  0  0  0  0
   -4.4011    3.6924    5.0511 H   0  0  0  0  0
   -6.1579    3.4526    6.8379 H   0  0  0  0  0
   -5.2069    2.1134    7.5939 H   0  0  0  0  0
   -4.8144    4.3133    8.7375 H   0  0  0  0  0
   -3.2930    3.6636    7.9992 H   0  0  0  0  0
   -4.1879    5.0130    7.1882 H   0  0  0  0  0
   -0.8354   -3.1428   -1.9861 H   0  0  0  0  0
   -0.5947   -3.3315   -0.1977 H   0  0  0  0  0
   -1.6017    0.6605   -1.4410 H   0  0  0  0  0
   -1.9584   -0.6691   -2.6292 H   0  0  0  0  0
   -2.9094   -0.5301   -1.0721 H   0  0  0  0  0
    1.0870   -1.9306    3.0429 H   0  0  0  0  0
    0.4078   -0.2322    2.8175 H   0  0  0  0  0
   -1.9530   -1.3192    3.0532 H   0  0  0  0  0
   -1.1278   -2.8077    3.6405 H   0  0  0  0  0
   -0.0881   -1.5607    5.5234 H   0  0  0  0  0
   -0.6979    0.0093    4.8694 H   0  0  0  0  0
   -3.0796   -0.8615    5.1133 H   0  0  0  0  0
   -2.4189   -2.3484    5.8993 H   0  0  0  0  0
   -1.3307   -0.9269    7.6720 H   0  0  0  0  0
   -1.9632    0.5616    6.8669 H   0  0  0  0  0
   -4.3254   -0.3154    7.1594 H   0  0  0  0  0
   -3.6628   -1.7450    8.0440 H   0  0  0  0  0
   -2.6046   -0.1921    9.7309 H   0  0  0  0  0
   -3.2846    1.2260    8.8401 H   0  0  0  0  0
   -4.7140    0.5941   10.7935 H   0  0  0  0  0
   -5.6098    0.3797    9.2333 H   0  0  0  0  0
   -4.9486   -1.0643   10.1029 H   0  0  0  0  0
    0.4522   -1.3976   -2.5669 H   0  0  0  0  0
    1.2148   -1.8104   -0.9700 H   0  0  0  0  0
    0.7271    0.7687   -0.3973 H   0  0  0  0  0
    2.9877    1.3164   -1.3491 H   0  0  0  0  0
    2.9704   -0.3064   -0.5385 H   0  0  0  0  0
    2.9400   -0.1974   -2.3513 H   0  0  0  0  0
   -0.8754    1.9848   -4.5015 H   0  0  0  0  0
    0.8686    2.3346   -4.9195 H   0  0  0  0  0
    0.9837    0.1910   -6.2497 H   0  0  0  0  0
   -0.7194   -0.2009   -5.7979 H   0  0  0  0  0
   -1.4927    1.9409   -6.9154 H   0  0  0  0  0
    0.2119    2.2899   -7.3991 H   0  0  0  0  0
    0.2912    0.1301   -8.6884 H   0  0  0  0  0
   -1.4076   -0.2303   -8.1944 H   0  0  0  0  0
   -2.1730    1.9087   -9.2978 H   0  0  0  0  0
   -0.4748    2.2445   -9.8101 H   0  0  0  0  0
   -0.4339    0.0784  -11.0948 H   0  0  0  0  0
   -2.1307   -0.2597  -10.5796 H   0  0  0  0  0
   -2.8876    1.8757  -11.6826 H   0  0  0  0  0
   -1.1914    2.2043  -12.2048 H   0  0  0  0  0
   -2.5137    1.1587  -14.0429 H   0  0  0  0  0
   -1.1774    0.0541  -13.5168 H   0  0  0  0  0
   -2.8792   -0.2728  -12.9943 H   0  0  0  0  0
  1  2  1  0  0  0
  1 43  1  0  0  0
  1 44  1  0  0  0
  1 45  1  0  0  0
  2  3  1  0  0  0
  2  4  1  0  0  0
  2 15  1  0  0  0
  3 46  1  0  0  0
  3 47  1  0  0  0
  3 48  1  0  0  0
  4  5  1  0  0  0
  4  6  2  0  0  0
  5  7  1  0  0  0
  7  8  1  0  0  0
  7 49  1  0  0  0
  7 50  1  0  0  0
  8  9  1  0  0  0
  8 51  1  0  0  0
  8 52  1  0  0  0
  9 10  1  0  0  0
  9 53  1  0  0  0
  9 54  1  0  0  0
 10 11  1  0  0  0
 10 55  1  0  0  0
 10 56  1  0  0  0
 11 12  1  0  0  0
 11 57  1  0  0  0
 11 58  1  0  0  0
 12 13  1  0  0  0
 12 59  1  0  0  0
 12 60  1  0  0  0
 13 14  1  0  0  0
 13 61  1  0  0  0
 13 62  1  0  0  0
 14 63  1  0  0  0
 14 64  1  0  0  0
 14 65  1  0  0  0
 15 16  1  0  0  0
 15 66  1  0  0  0
 15 67  1  0  0  0
 16 17  1  0  0  0
 16 18  1  0  0  0
 16 29  1  0  0  0
 17 68  1  0  0  0
 17 69  1  0  0  0
 17 70  1  0  0  0
 18 19  2  0  0  0
 18 20  1  0  0  0
 20 21  1  0  0  0
 21 22  1  0  0  0
 21 71  1  0  0  0
 21 72  1  0  0  0
 22 23  1  0  0  0
 22 73  1  0  0  0
 22 74  1  0  0  0
 23 24  1  0  0  0
 23 75  1  0  0  0
 23 76  1  0  0  0
 24 25  1  0  0  0
 24 77  1  0  0  0
 24 78  1  0  0  0
 25 26  1  0  0  0
 25 79  1  0  0  0
 25 80  1  0  0  0
 26 27  1  0  0  0
 26 81  1  0  0  0
 26 82  1  0  0  0
 27 28  1  0  0  0
 27 83  1  0  0  0
 27 84  1  0  0  0
 28 85  1  0  0  0
 28 86  1  0  0  0
 28 87  1  0  0  0
 29 30  1  0  0  0
 29 88  1  0  0  0
 29 89  1  0  0  0
 30 31  1  0  0  0
 30 32  1  0  0  0
 30 90  1  0  0  0
 31 91  1  0  0  0
 31 92  1  0  0  0
 31 93  1  0  0  0
 32 33  2  0  0  0
 32 34  1  0  0  0
 34 35  1  0  0  0
 35 36  1  0  0  0
 35 94  1  0  0  0
 35 95  1  0  0  0
 36 37  1  0  0  0
 36 96  1  0  0  0
 36 97  1  0  0  0
 37 38  1  0  0  0
 37 98  1  0  0  0
 37 99  1  0  0  0
 38 39  1  0  0  0
 38100  1  0  0  0
 38101  1  0  0  0
 39 40  1  0  0  0
 39102  1  0  0  0
 39103  1  0  0  0
 40 41  1  0  0  0
 40104  1  0  0  0
 40105  1  0  0  0
 41 42  1  0  0  0
 41106  1  0  0  0
 41107  1  0  0  0
 42108  1  0  0  0
 42109  1  0  0  0
 42110  1  0  0  0
M  END
