C:\Mis documentos\Gara\Polímeros (Tg)\Base de datos polímeros\053 trimer poly(n-heptyl acrylate).hin
 OpenBabel04231221503D

 92 91  0  0  0  0  0  0  0  0999 V2000
   -3.5046   -1.5049   -3.5566 C   0  0  0  0  0
   -2.1700   -1.0506   -3.0028 C   0  0  0  0  0
   -3.4217   -2.8909   -4.1182 C   0  0  0  0  0
   -3.7387   -3.2739   -5.2458 O   0  0  0  0  0
   -2.9438   -3.8111   -3.2279 O   0  0  0  0  0
   -2.8373   -5.1674   -3.6961 C   0  0  0  0  0
   -2.1862   -5.9460   -2.5688 C   0  0  0  0  0
   -1.9764   -7.3871   -2.9795 C   0  0  0  0  0
   -1.3099   -8.1737   -1.8709 C   0  0  0  0  0
   -1.0805   -9.6128   -2.2797 C   0  0  0  0  0
   -0.4068  -10.3974   -1.1738 C   0  0  0  0  0
   -0.1705  -11.8298   -1.5768 C   0  0  0  0  0
   -2.2727    0.3234   -2.3512 C   0  0  0  0  0
   -0.8903    0.8337   -1.9561 C   0  0  0  0  0
   -3.1925    0.2523   -1.1560 C   0  0  0  0  0
   -4.2987    0.7820   -1.0358 O   0  0  0  0  0
   -2.7141   -0.5173   -0.1334 O   0  0  0  0  0
   -3.4977   -0.5975    1.0661 C   0  0  0  0  0
   -3.2258    0.6027    1.9520 C   0  0  0  0  0
   -4.0092    0.5063    3.2416 C   0  0  0  0  0
   -3.7159    1.6867    4.1431 C   0  0  0  0  0
   -4.5276    1.6181    5.4186 C   0  0  0  0  0
   -4.2263    2.7911    6.3271 C   0  0  0  0  0
   -5.0389    2.7312    7.5946 C   0  0  0  0  0
   -0.6635    2.2976   -2.3049 C   0  0  0  0  0
    0.8230    2.6028   -2.3542 C   0  0  0  0  0
   -1.3164    3.2439   -1.3286 C   0  0  0  0  0
   -1.9521    4.2644   -1.5976 O   0  0  0  0  0
   -1.1338    2.9067   -0.0169 O   0  0  0  0  0
   -1.6919    3.7713    0.9831 C   0  0  0  0  0
   -0.7350    4.9073    1.2888 C   0  0  0  0  0
   -1.2010    5.6883    2.4973 C   0  0  0  0  0
   -0.2433    6.8161    2.8175 C   0  0  0  0  0
   -0.6828    7.5772    4.0497 C   0  0  0  0  0
    0.2753    8.7049    4.3701 C   0  0  0  0  0
   -0.1485    9.4569    5.6051 C   0  0  0  0  0
   -4.2812   -1.4993   -2.7439 H   0  0  0  0  0
   -3.8500   -0.8173   -4.3741 H   0  0  0  0  0
   -1.8011   -1.7951   -2.2470 H   0  0  0  0  0
   -1.4192   -1.0038   -3.8353 H   0  0  0  0  0
   -3.8653   -5.5471   -3.9305 H   0  0  0  0  0
   -2.2166   -5.1844   -4.6295 H   0  0  0  0  0
   -1.2045   -5.4718   -2.3066 H   0  0  0  0  0
   -2.8339   -5.8936   -1.6553 H   0  0  0  0  0
   -2.9636   -7.8557   -3.2337 H   0  0  0  0  0
   -1.3419   -7.4283   -3.9041 H   0  0  0  0  0
   -0.3288   -7.6964   -1.6088 H   0  0  0  0  0
   -1.9497   -8.1412   -0.9498 H   0  0  0  0  0
   -2.0616  -10.0926   -2.5366 H   0  0  0  0  0
   -0.4448   -9.6452   -3.2036 H   0  0  0  0  0
    0.5715   -9.9125   -0.9146 H   0  0  0  0  0
   -1.0449  -10.3656   -0.2512 H   0  0  0  0  0
    0.3262  -12.3894   -0.7478 H   0  0  0  0  0
   -1.1365  -12.3371   -1.8156 H   0  0  0  0  0
    0.4846  -11.8826   -2.4800 H   0  0  0  0  0
   -2.7545    1.0371   -3.0806 H   0  0  0  0  0
   -0.7221    0.6785   -0.8564 H   0  0  0  0  0
   -0.1111    0.2282   -2.4946 H   0  0  0  0  0
   -4.5868   -0.6743    0.8120 H   0  0  0  0  0
   -3.1378   -1.5505    1.5385 H   0  0  0  0  0
   -2.1272    0.6659    2.1693 H   0  0  0  0  0
   -3.5082    1.5370    1.3959 H   0  0  0  0  0
   -5.1074    0.4706    3.0134 H   0  0  0  0  0
   -3.7488   -0.4468    3.7733 H   0  0  0  0  0
   -2.6221    1.7066    4.3923 H   0  0  0  0  0
   -3.9477    2.6406    3.5994 H   0  0  0  0  0
   -5.6213    1.6086    5.1682 H   0  0  0  0  0
   -4.3034    0.6594    5.9565 H   0  0  0  0  0
   -3.1331    2.7966    6.5800 H   0  0  0  0  0
   -4.4443    3.7491    5.7848 H   0  0  0  0  0
   -4.7996    3.6026    8.2507 H   0  0  0  0  0
   -6.1315    2.7528    7.3641 H   0  0  0  0  0
   -4.8194    1.7932    8.1600 H   0  0  0  0  0
   -1.1145    2.5214   -3.3148 H   0  0  0  0  0
    1.3117    1.9855   -3.1458 H   0  0  0  0  0
    0.9891    3.6816   -2.5900 H   0  0  0  0  0
    1.2994    2.3719   -1.3709 H   0  0  0  0  0
   -2.6891    4.1587    0.6483 H   0  0  0  0  0
   -1.8180    3.0856    1.8658 H   0  0  0  0  0
    0.2905    4.4923    1.4725 H   0  0  0  0  0
   -0.6703    5.5812    0.3941 H   0  0  0  0  0
   -2.2243    6.1062    2.3049 H   0  0  0  0  0
   -1.2828    5.0025    3.3818 H   0  0  0  0  0
    0.7862    6.4006    2.9801 H   0  0  0  0  0
   -0.1829    7.5167    1.9432 H   0  0  0  0  0
   -1.7122    7.9933    3.8883 H   0  0  0  0  0
   -0.7429    6.8764    4.9238 H   0  0  0  0  0
    1.3066    8.2881    4.5182 H   0  0  0  0  0
    0.3268    9.4098    3.4984 H   0  0  0  0  0
    0.5691   10.2849    5.8208 H   0  0  0  0  0
   -1.1655    9.8981    5.4688 H   0  0  0  0  0
   -0.1783    8.7766    6.4904 H   0  0  0  0  0
  1  2  1  0  0  0
  1  3  1  0  0  0
  1 37  1  0  0  0
  1 38  1  0  0  0
  2 13  1  0  0  0
  2 39  1  0  0  0
  2 40  1  0  0  0
  3  4  2  0  0  0
  3  5  1  0  0  0
  5  6  1  0  0  0
  6  7  1  0  0  0
  6 41  1  0  0  0
  6 42  1  0  0  0
  7  8  1  0  0  0
  7 43  1  0  0  0
  7 44  1  0  0  0
  8  9  1  0  0  0
  8 45  1  0  0  0
  8 46  1  0  0  0
  9 10  1  0  0  0
  9 47  1  0  0  0
  9 48  1  0  0  0
 10 11  1  0  0  0
 10 49  1  0  0  0
 10 50  1  0  0  0
 11 12  1  0  0  0
 11 51  1  0  0  0
 11 52  1  0  0  0
 12 53  1  0  0  0
 12 54  1  0  0  0
 12 55  1  0  0  0
 13 14  1  0  0  0
 13 15  1  0  0  0
 13 56  1  0  0  0
 14 25  1  0  0  0
 14 57  1  0  0  0
 14 58  1  0  0  0
 15 16  2  0  0  0
 15 17  1  0  0  0
 17 18  1  0  0  0
 18 19  1  0  0  0
 18 59  1  0  0  0
 18 60  1  0  0  0
 19 20  1  0  0  0
 19 61  1  0  0  0
 19 62  1  0  0  0
 20 21  1  0  0  0
 20 63  1  0  0  0
 20 64  1  0  0  0
 21 22  1  0  0  0
 21 65  1  0  0  0
 21 66  1  0  0  0
 22 23  1  0  0  0
 22 67  1  0  0  0
 22 68  1  0  0  0
 23 24  1  0  0  0
 23 69  1  0  0  0
 23 70  1  0  0  0
 24 71  1  0  0  0
 24 72  1  0  0  0
 24 73  1  0  0  0
 25 26  1  0  0  0
 25 27  1  0  0  0
 25 74  1  0  0  0
 26 75  1  0  0  0
 26 76  1  0  0  0
 26 77  1  0  0  0
 27 28  2  0  0  0
 27 29  1  0  0  0
 29 30  1  0  0  0
 30 31  1  0  0  0
 30 78  1  0  0  0
 30 79  1  0  0  0
 31 32  1  0  0  0
 31 80  1  0  0  0
 31 81  1  0  0  0
 32 33  1  0  0  0
 32 82  1  0  0  0
 32 83  1  0  0  0
 33 34  1  0  0  0
 33 84  1  0  0  0
 33 85  1  0  0  0
 34 35  1  0  0  0
 34 86  1  0  0  0
 34 87  1  0  0  0
 35 36  1  0  0  0
 35 88  1  0  0  0
 35 89  1  0  0  0
 36 90  1  0  0  0
 36 91  1  0  0  0
 36 92  1  0  0  0
M  END
