C:\Mis documentos\Gara\Polímeros (Tg)\Base de datos polímeros\054 trimer poly(n-nonyl acrylate).hin
 OpenBabel04231221503D

110109  0  0  0  0  0  0  0  0999 V2000
   -3.1486   -1.8671   -3.7766 C   0  0  0  0  0
   -1.7586   -1.5144   -3.2946 C   0  0  0  0  0
   -3.2828   -3.3006   -4.1847 C   0  0  0  0  0
   -4.1852   -3.8073   -4.8549 O   0  0  0  0  0
   -2.2778   -4.1111   -3.7362 O   0  0  0  0  0
   -2.3679   -5.5045   -4.0842 C   0  0  0  0  0
   -1.1288   -6.1569   -3.5012 C   0  0  0  0  0
   -1.1110   -7.6350   -3.8237 C   0  0  0  0  0
    0.1307   -8.2944   -3.2624 C   0  0  0  0  0
    0.1660   -9.7716   -3.5903 C   0  0  0  0  0
    1.4163  -10.4238   -3.0398 C   0  0  0  0  0
    1.4606  -11.8993   -3.3737 C   0  0  0  0  0
    2.7152  -12.5490   -2.8294 C   0  0  0  0  0
    2.7670  -14.0176   -3.1621 C   0  0  0  0  0
   -1.6745   -0.0665   -2.8292 C   0  0  0  0  0
   -0.2288    0.3249   -2.5341 C   0  0  0  0  0
   -2.5484    0.1340   -1.6147 C   0  0  0  0  0
   -3.6002    0.7727   -1.5515 O   0  0  0  0  0
   -2.0925   -0.4976   -0.4915 O   0  0  0  0  0
   -2.7981   -0.2667    0.7368 C   0  0  0  0  0
   -2.3405    1.0379    1.3595 C   0  0  0  0  0
   -3.0180    1.2704    2.6912 C   0  0  0  0  0
   -2.4906    2.5291    3.3463 C   0  0  0  0  0
   -3.1986    2.8131    4.6533 C   0  0  0  0  0
   -2.6044    4.0243    5.3398 C   0  0  0  0  0
   -3.3335    4.3450    6.6265 C   0  0  0  0  0
   -2.6960    5.5191    7.3388 C   0  0  0  0  0
   -3.4337    5.8669    8.6056 C   0  0  0  0  0
    0.2309    1.5384   -3.3300 C   0  0  0  0  0
    1.7431    1.6505   -3.2995 C   0  0  0  0  0
   -0.3763    2.8137   -2.8019 C   0  0  0  0  0
   -1.0258    3.6508   -3.4308 O   0  0  0  0  0
   -0.1364    3.0343   -1.4753 O   0  0  0  0  0
   -0.6857    4.2414   -0.9143 C   0  0  0  0  0
   -0.2782    4.2436    0.5470 C   0  0  0  0  0
   -0.6906    5.5427    1.2044 C   0  0  0  0  0
   -0.2620    5.5756    2.6561 C   0  0  0  0  0
   -0.6320    6.8902    3.3088 C   0  0  0  0  0
   -0.1978    6.9233    4.7586 C   0  0  0  0  0
   -0.5255    8.2536    5.4018 C   0  0  0  0  0
   -0.1129    8.2761    6.8585 C   0  0  0  0  0
   -0.3869    9.6157    7.4913 C   0  0  0  0  0
   -3.9025   -1.6745   -2.9640 H   0  0  0  0  0
   -3.4344   -1.2331   -4.6591 H   0  0  0  0  0
   -1.4635   -2.1950   -2.4514 H   0  0  0  0  0
   -1.0255   -1.6753   -4.1285 H   0  0  0  0  0
   -3.3099   -5.9254   -3.6466 H   0  0  0  0  0
   -2.4061   -5.5984   -5.2005 H   0  0  0  0  0
   -0.2145   -5.6594   -3.9180 H   0  0  0  0  0
   -1.1130   -6.0030   -2.3907 H   0  0  0  0  0
   -2.0250   -8.1266   -3.3973 H   0  0  0  0  0
   -1.1448   -7.7801   -4.9359 H   0  0  0  0  0
    1.0436   -7.7946   -3.6820 H   0  0  0  0  0
    0.1599   -8.1552   -2.1495 H   0  0  0  0  0
   -0.7409  -10.2745   -3.1622 H   0  0  0  0  0
    0.1273   -9.9115   -4.7028 H   0  0  0  0  0
    2.3227   -9.9155   -3.4631 H   0  0  0  0  0
    1.4518  -10.2888   -1.9266 H   0  0  0  0  0
    0.5576  -12.4096   -2.9459 H   0  0  0  0  0
    1.4203  -12.0350   -4.4867 H   0  0  0  0  0
    3.6169  -12.0342   -3.2552 H   0  0  0  0  0
    2.7532  -12.4130   -1.7161 H   0  0  0  0  0
    3.6991  -14.4759   -2.7520 H   0  0  0  0  0
    1.8892  -14.5523   -2.7251 H   0  0  0  0  0
    2.7551  -14.1722   -4.2682 H   0  0  0  0  0
   -2.0979    0.6031   -3.6337 H   0  0  0  0  0
   -0.0973    0.5321   -1.4378 H   0  0  0  0  0
    0.4490   -0.5349   -2.7855 H   0  0  0  0  0
   -3.9038   -0.2636    0.5540 H   0  0  0  0  0
   -2.5073   -1.1508    1.3649 H   0  0  0  0  0
   -1.2267    1.0171    1.4916 H   0  0  0  0  0
   -2.5774    1.8800    0.6552 H   0  0  0  0  0
   -4.1264    1.3577    2.5409 H   0  0  0  0  0
   -2.8417    0.3921    3.3666 H   0  0  0  0  0
   -1.3883    2.4218    3.5299 H   0  0  0  0  0
   -2.6232    3.3998    2.6493 H   0  0  0  0  0
   -4.2902    2.9853    4.4608 H   0  0  0  0  0
   -3.1183    1.9208    5.3285 H   0  0  0  0  0
   -1.5193    3.8364    5.5584 H   0  0  0  0  0
   -2.6502    4.9096    4.6501 H   0  0  0  0  0
   -4.4076    4.5787    6.4023 H   0  0  0  0  0
   -3.3241    3.4476    7.2998 H   0  0  0  0  0
   -1.6272    5.2737    7.5797 H   0  0  0  0  0
   -2.6792    6.4096    6.6540 H   0  0  0  0  0
   -2.9412    6.7300    9.1153 H   0  0  0  0  0
   -4.4919    6.1457    8.3822 H   0  0  0  0  0
   -3.4418    4.9991    9.3087 H   0  0  0  0  0
   -0.1091    1.4393   -4.4011 H   0  0  0  0  0
    2.2016    0.7385   -3.7517 H   0  0  0  0  0
    2.0771    2.5436   -3.8805 H   0  0  0  0  0
    2.1029    1.7526   -2.2470 H   0  0  0  0  0
   -0.2648    5.1201   -1.4686 H   0  0  0  0  0
   -1.7995    4.2239   -1.0397 H   0  0  0  0  0
   -0.7608    3.3754    1.0716 H   0  0  0  0  0
    0.8317    4.1053    0.6254 H   0  0  0  0  0
   -0.2306    6.4071    0.6564 H   0  0  0  0  0
   -1.8045    5.6615    1.1382 H   0  0  0  0  0
   -0.7517    4.7299    3.2120 H   0  0  0  0  0
    0.8470    5.4203    2.7249 H   0  0  0  0  0
   -0.1508    7.7367    2.7515 H   0  0  0  0  0
   -1.7424    7.0405    3.2466 H   0  0  0  0  0
   -0.7118    6.0977    5.3228 H   0  0  0  0  0
    0.9059    6.7346    4.8260 H   0  0  0  0  0
   -0.0035    9.0785    4.8493 H   0  0  0  0  0
   -1.6281    8.4473    5.3230 H   0  0  0  0  0
   -0.6712    7.4743    7.4137 H   0  0  0  0  0
    0.9801    8.0365    6.9418 H   0  0  0  0  0
   -0.0820    9.6071    8.5656 H   0  0  0  0  0
    0.1828   10.4225    6.9696 H   0  0  0  0  0
   -1.4745    9.8635    7.4351 H   0  0  0  0  0
  1  2  1  0  0  0
  1  3  1  0  0  0
  1 43  1  0  0  0
  1 44  1  0  0  0
  2 15  1  0  0  0
  2 45  1  0  0  0
  2 46  1  0  0  0
  3  4  2  0  0  0
  3  5  1  0  0  0
  5  6  1  0  0  0
  6  7  1  0  0  0
  6 47  1  0  0  0
  6 48  1  0  0  0
  7  8  1  0  0  0
  7 49  1  0  0  0
  7 50  1  0  0  0
  8  9  1  0  0  0
  8 51  1  0  0  0
  8 52  1  0  0  0
  9 10  1  0  0  0
  9 53  1  0  0  0
  9 54  1  0  0  0
 10 11  1  0  0  0
 10 55  1  0  0  0
 10 56  1  0  0  0
 11 12  1  0  0  0
 11 57  1  0  0  0
 11 58  1  0  0  0
 12 13  1  0  0  0
 12 59  1  0  0  0
 12 60  1  0  0  0
 13 14  1  0  0  0
 13 61  1  0  0  0
 13 62  1  0  0  0
 14 63  1  0  0  0
 14 64  1  0  0  0
 14 65  1  0  0  0
 15 16  1  0  0  0
 15 17  1  0  0  0
 15 66  1  0  0  0
 16 29  1  0  0  0
 16 67  1  0  0  0
 16 68  1  0  0  0
 17 18  2  0  0  0
 17 19  1  0  0  0
 19 20  1  0  0  0
 20 21  1  0  0  0
 20 69  1  0  0  0
 20 70  1  0  0  0
 21 22  1  0  0  0
 21 71  1  0  0  0
 21 72  1  0  0  0
 22 23  1  0  0  0
 22 73  1  0  0  0
 22 74  1  0  0  0
 23 24  1  0  0  0
 23 75  1  0  0  0
 23 76  1  0  0  0
 24 25  1  0  0  0
 24 77  1  0  0  0
 24 78  1  0  0  0
 25 26  1  0  0  0
 25 79  1  0  0  0
 25 80  1  0  0  0
 26 27  1  0  0  0
 26 81  1  0  0  0
 26 82  1  0  0  0
 27 28  1  0  0  0
 27 83  1  0  0  0
 27 84  1  0  0  0
 28 85  1  0  0  0
 28 86  1  0  0  0
 28 87  1  0  0  0
 29 30  1  0  0  0
 29 31  1  0  0  0
 29 88  1  0  0  0
 30 89  1  0  0  0
 30 90  1  0  0  0
 30 91  1  0  0  0
 31 32  2  0  0  0
 31 33  1  0  0  0
 33 34  1  0  0  0
 34 35  1  0  0  0
 34 92  1  0  0  0
 34 93  1  0  0  0
 35 36  1  0  0  0
 35 94  1  0  0  0
 35 95  1  0  0  0
 36 37  1  0  0  0
 36 96  1  0  0  0
 36 97  1  0  0  0
 37 38  1  0  0  0
 37 98  1  0  0  0
 37 99  1  0  0  0
 38 39  1  0  0  0
 38100  1  0  0  0
 38101  1  0  0  0
 39 40  1  0  0  0
 39102  1  0  0  0
 39103  1  0  0  0
 40 41  1  0  0  0
 40104  1  0  0  0
 40105  1  0  0  0
 41 42  1  0  0  0
 41106  1  0  0  0
 41107  1  0  0  0
 42108  1  0  0  0
 42109  1  0  0  0
 42110  1  0  0  0
M  END
