C:\Mis documentos\Gara\Polímeros (Tg)\Base de datos polímeros\055 trimer poly(n-hexyl acrylate).hin
 OpenBabel04231221503D

 83 82  0  0  0  0  0  0  0  0999 V2000
   -3.5224   -3.4305   -3.2448 C   0  0  0  0  0
   -3.5312   -1.9343   -2.9999 C   0  0  0  0  0
   -4.7736   -1.5555   -2.2334 C   0  0  0  0  0
   -5.7161   -0.8665   -2.6277 O   0  0  0  0  0
   -4.8227   -2.0680   -0.9682 O   0  0  0  0  0
   -5.9846   -1.7375   -0.1845 C   0  0  0  0  0
   -5.7578   -2.3606    1.1800 C   0  0  0  0  0
   -6.9796   -2.1697    2.0522 C   0  0  0  0  0
   -6.7876   -2.8195    3.4059 C   0  0  0  0  0
   -8.0149   -2.6515    4.2765 C   0  0  0  0  0
   -7.8370   -3.3223    5.6142 C   0  0  0  0  0
   -2.2708   -1.5075   -2.2604 C   0  0  0  0  0
   -2.0686    0.0050   -2.2678 C   0  0  0  0  0
   -2.0733    0.5656   -0.8660 C   0  0  0  0  0
   -2.6921    1.5528   -0.4640 O   0  0  0  0  0
   -1.2755   -0.1147    0.0098 O   0  0  0  0  0
   -1.3088    0.2824    1.3887 C   0  0  0  0  0
   -2.5092   -0.3379    2.0766 C   0  0  0  0  0
   -2.5288    0.0036    3.5493 C   0  0  0  0  0
   -3.6918   -0.6775    4.2384 C   0  0  0  0  0
   -3.7767   -0.2911    5.6992 C   0  0  0  0  0
   -4.9002   -1.0175    6.3929 C   0  0  0  0  0
   -0.7664    0.3793   -2.9646 C   0  0  0  0  0
   -0.6683    1.8742   -3.1914 C   0  0  0  0  0
    0.6953    2.2616   -3.6753 C   0  0  0  0  0
    1.0015    2.8099   -4.7355 O   0  0  0  0  0
    1.6886    1.9607   -2.7860 O   0  0  0  0  0
    3.0293    2.3120   -3.1717 C   0  0  0  0  0
    3.9264    1.8130   -2.0548 C   0  0  0  0  0
    5.3749    2.1149   -2.3706 C   0  0  0  0  0
    6.2849    1.6091   -1.2716 C   0  0  0  0  0
    7.7375    1.9033   -1.5803 C   0  0  0  0  0
    8.6467    1.3954   -0.4912 C   0  0  0  0  0
   -2.6353   -3.7101   -3.8624 H   0  0  0  0  0
   -3.4758   -3.9814   -2.2742 H   0  0  0  0  0
   -4.4477   -3.7394   -3.7879 H   0  0  0  0  0
   -3.5872   -1.3978   -3.9907 H   0  0  0  0  0
   -6.0791   -0.6221   -0.1256 H   0  0  0  0  0
   -6.8903   -2.1587   -0.6930 H   0  0  0  0  0
   -5.5350   -3.4529    1.0593 H   0  0  0  0  0
   -4.8605   -1.8886    1.6637 H   0  0  0  0  0
   -7.1798   -1.0736    2.1856 H   0  0  0  0  0
   -7.8783   -2.6123    1.5466 H   0  0  0  0  0
   -6.5688   -3.9116    3.2716 H   0  0  0  0  0
   -5.8989   -2.3631    3.9213 H   0  0  0  0  0
   -8.2169   -1.5580    4.4281 H   0  0  0  0  0
   -8.9083   -3.0837    3.7531 H   0  0  0  0  0
   -8.7493   -3.1835    6.2429 H   0  0  0  0  0
   -7.6598   -4.4176    5.4865 H   0  0  0  0  0
   -6.9626   -2.8865    6.1582 H   0  0  0  0  0
   -1.3908   -2.0075   -2.7468 H   0  0  0  0  0
   -2.3196   -1.8901   -1.2051 H   0  0  0  0  0
   -2.9275    0.5035   -2.8060 H   0  0  0  0  0
   -0.3428   -0.1239    1.7916 H   0  0  0  0  0
   -1.3270    1.4001    1.4693 H   0  0  0  0  0
   -3.4451    0.0386    1.5831 H   0  0  0  0  0
   -2.4839   -1.4510    1.9389 H   0  0  0  0  0
   -1.5662   -0.3170    4.0280 H   0  0  0  0  0
   -2.6107    1.1151    3.6781 H   0  0  0  0  0
   -4.6490   -0.4010    3.7203 H   0  0  0  0  0
   -3.5806   -1.7909    4.1490 H   0  0  0  0  0
   -2.8042   -0.5267    6.2068 H   0  0  0  0  0
   -3.9334    0.8168    5.7839 H   0  0  0  0  0
   -4.9715   -0.6958    7.4597 H   0  0  0  0  0
   -5.8768   -0.8049    5.8922 H   0  0  0  0  0
   -4.7309   -2.1217    6.3669 H   0  0  0  0  0
   -0.7175   -0.1519   -3.9516 H   0  0  0  0  0
    0.1020    0.0319   -2.3426 H   0  0  0  0  0
   -1.4194    2.2086   -3.9555 H   0  0  0  0  0
   -0.8756    2.4242   -2.2327 H   0  0  0  0  0
    3.2674    1.8216   -4.1512 H   0  0  0  0  0
    3.0886    3.4247   -3.2929 H   0  0  0  0  0
    3.6297    2.3024   -1.0907 H   0  0  0  0  0
    3.7806    0.7089   -1.9245 H   0  0  0  0  0
    5.6579    1.6349   -3.3445 H   0  0  0  0  0
    5.5122    3.2217   -2.4943 H   0  0  0  0  0
    6.0027    2.0903   -0.2982 H   0  0  0  0  0
    6.1445    0.5029   -1.1463 H   0  0  0  0  0
    8.0162    1.4262   -2.5570 H   0  0  0  0  0
    7.8769    3.0101   -1.7023 H   0  0  0  0  0
    9.7119    1.6228   -0.7374 H   0  0  0  0  0
    8.3998    1.8773    0.4857 H   0  0  0  0  0
    8.5406    0.2899   -0.3722 H   0  0  0  0  0
  1  2  1  0  0  0
  1 34  1  0  0  0
  1 35  1  0  0  0
  1 36  1  0  0  0
  2  3  1  0  0  0
  2 12  1  0  0  0
  2 37  1  0  0  0
  3  4  2  0  0  0
  3  5  1  0  0  0
  5  6  1  0  0  0
  6  7  1  0  0  0
  6 38  1  0  0  0
  6 39  1  0  0  0
  7  8  1  0  0  0
  7 40  1  0  0  0
  7 41  1  0  0  0
  8  9  1  0  0  0
  8 42  1  0  0  0
  8 43  1  0  0  0
  9 10  1  0  0  0
  9 44  1  0  0  0
  9 45  1  0  0  0
 10 11  1  0  0  0
 10 46  1  0  0  0
 10 47  1  0  0  0
 11 48  1  0  0  0
 11 49  1  0  0  0
 11 50  1  0  0  0
 12 13  1  0  0  0
 12 51  1  0  0  0
 12 52  1  0  0  0
 13 14  1  0  0  0
 13 23  1  0  0  0
 13 53  1  0  0  0
 14 15  2  0  0  0
 14 16  1  0  0  0
 16 17  1  0  0  0
 17 18  1  0  0  0
 17 54  1  0  0  0
 17 55  1  0  0  0
 18 19  1  0  0  0
 18 56  1  0  0  0
 18 57  1  0  0  0
 19 20  1  0  0  0
 19 58  1  0  0  0
 19 59  1  0  0  0
 20 21  1  0  0  0
 20 60  1  0  0  0
 20 61  1  0  0  0
 21 22  1  0  0  0
 21 62  1  0  0  0
 21 63  1  0  0  0
 22 64  1  0  0  0
 22 65  1  0  0  0
 22 66  1  0  0  0
 23 24  1  0  0  0
 23 67  1  0  0  0
 23 68  1  0  0  0
 24 25  1  0  0  0
 24 69  1  0  0  0
 24 70  1  0  0  0
 25 26  2  0  0  0
 25 27  1  0  0  0
 27 28  1  0  0  0
 28 29  1  0  0  0
 28 71  1  0  0  0
 28 72  1  0  0  0
 29 30  1  0  0  0
 29 73  1  0  0  0
 29 74  1  0  0  0
 30 31  1  0  0  0
 30 75  1  0  0  0
 30 76  1  0  0  0
 31 32  1  0  0  0
 31 77  1  0  0  0
 31 78  1  0  0  0
 32 33  1  0  0  0
 32 79  1  0  0  0
 32 80  1  0  0  0
 33 81  1  0  0  0
 33 82  1  0  0  0
 33 83  1  0  0  0
M  END
