C:\Mis documentos\Gara\Polímeros (Tg)\Base de datos polímeros\056 trimer poly(1-heptene).hin
 OpenBabel04231221563D

 65 64  0  0  0  0  0  0  0  0999 V2000
   -3.3207   -3.8223    0.3395 C   0  0  0  0  0
   -2.7805   -2.4419    0.6541 C   0  0  0  0  0
   -3.0854   -2.0563    2.0957 C   0  0  0  0  0
   -4.5153   -1.5908    2.2728 C   0  0  0  0  0
   -4.7918   -1.2088    3.7114 C   0  0  0  0  0
   -6.2168   -0.7297    3.8900 C   0  0  0  0  0
   -6.4963   -0.3459    5.3201 C   0  0  0  0  0
   -1.2795   -2.4007    0.3901 C   0  0  0  0  0
   -0.7717   -0.9937    0.0952 C   0  0  0  0  0
    0.7461   -0.9654    0.2274 C   0  0  0  0  0
    1.2928    0.4463    0.2347 C   0  0  0  0  0
    2.8000    0.4485    0.3746 C   0  0  0  0  0
    3.3496    1.8591    0.3957 C   0  0  0  0  0
    4.8498    1.8663    0.5366 C   0  0  0  0  0
   -1.2207   -0.5255   -1.2867 C   0  0  0  0  0
   -1.9553    0.7981   -1.2267 C   0  0  0  0  0
   -2.3859    1.2512   -2.6054 C   0  0  0  0  0
   -3.1512    2.5556   -2.5406 C   0  0  0  0  0
   -3.5944    3.0024   -3.9171 C   0  0  0  0  0
   -4.3711    4.3004   -3.8518 C   0  0  0  0  0
   -4.8190    4.7468   -5.2195 C   0  0  0  0  0
   -3.1720   -4.0605   -0.7413 H   0  0  0  0  0
   -2.7950   -4.5973    0.9476 H   0  0  0  0  0
   -4.4127   -3.8757    0.5659 H   0  0  0  0  0
   -3.2844   -1.6983   -0.0276 H   0  0  0  0  0
   -2.8882   -2.9334    2.7666 H   0  0  0  0  0
   -2.3926   -1.2332    2.4163 H   0  0  0  0  0
   -4.7090   -0.7086    1.6068 H   0  0  0  0  0
   -5.2221   -2.4033    1.9585 H   0  0  0  0  0
   -4.6063   -2.0921    4.3778 H   0  0  0  0  0
   -4.0818   -0.4004    4.0295 H   0  0  0  0  0
   -6.4011    0.1518    3.2205 H   0  0  0  0  0
   -6.9257   -1.5392    3.5715 H   0  0  0  0  0
   -7.5509    0.0044    5.4294 H   0  0  0  0  0
   -6.3422   -1.2186    6.0000 H   0  0  0  0  0
   -5.8156    0.4768    5.6479 H   0  0  0  0  0
   -1.0326   -3.0661   -0.4791 H   0  0  0  0  0
   -0.7422   -2.8140    1.2843 H   0  0  0  0  0
   -1.1982   -0.2984    0.8736 H   0  0  0  0  0
    1.0431   -1.4750    1.1828 H   0  0  0  0  0
    1.2070   -1.5465   -0.6139 H   0  0  0  0  0
    1.0013    0.9706   -0.7139 H   0  0  0  0  0
    0.8355    1.0223    1.0823 H   0  0  0  0  0
    3.0914   -0.0814    1.3197 H   0  0  0  0  0
    3.2581   -0.1201   -0.4772 H   0  0  0  0  0
    3.0572    2.3879   -0.5499 H   0  0  0  0  0
    2.8885    2.4267    1.2468 H   0  0  0  0  0
    5.2336    2.9149    0.5510 H   0  0  0  0  0
    5.1593    1.3646    1.4853 H   0  0  0  0  0
    5.3288    1.3270   -0.3161 H   0  0  0  0  0
   -1.8940   -1.2933   -1.7535 H   0  0  0  0  0
   -0.3330   -0.4241   -1.9659 H   0  0  0  0  0
   -2.8575    0.6963   -0.5667 H   0  0  0  0  0
   -1.2909    1.5755   -0.7642 H   0  0  0  0  0
   -1.4832    1.3764   -3.2598 H   0  0  0  0  0
   -3.0287    0.4618   -3.0771 H   0  0  0  0  0
   -4.0487    2.4321   -1.8787 H   0  0  0  0  0
   -2.5059    3.3478   -2.0772 H   0  0  0  0  0
   -2.6969    3.1347   -4.5771 H   0  0  0  0  0
   -4.2329    2.2065   -4.3837 H   0  0  0  0  0
   -5.2656    4.1672   -3.1873 H   0  0  0  0  0
   -3.7306    5.0958   -3.3865 H   0  0  0  0  0
   -5.3890    5.7045   -5.1481 H   0  0  0  0  0
   -3.9399    4.9086   -5.8892 H   0  0  0  0  0
   -5.4790    3.9777   -5.6889 H   0  0  0  0  0
  1  2  1  0  0  0
  1 22  1  0  0  0
  1 23  1  0  0  0
  1 24  1  0  0  0
  2  3  1  0  0  0
  2  8  1  0  0  0
  2 25  1  0  0  0
  3  4  1  0  0  0
  3 26  1  0  0  0
  3 27  1  0  0  0
  4  5  1  0  0  0
  4 28  1  0  0  0
  4 29  1  0  0  0
  5  6  1  0  0  0
  5 30  1  0  0  0
  5 31  1  0  0  0
  6  7  1  0  0  0
  6 32  1  0  0  0
  6 33  1  0  0  0
  7 34  1  0  0  0
  7 35  1  0  0  0
  7 36  1  0  0  0
  8  9  1  0  0  0
  8 37  1  0  0  0
  8 38  1  0  0  0
  9 10  1  0  0  0
  9 15  1  0  0  0
  9 39  1  0  0  0
 10 11  1  0  0  0
 10 40  1  0  0  0
 10 41  1  0  0  0
 11 12  1  0  0  0
 11 42  1  0  0  0
 11 43  1  0  0  0
 12 13  1  0  0  0
 12 44  1  0  0  0
 12 45  1  0  0  0
 13 14  1  0  0  0
 13 46  1  0  0  0
 13 47  1  0  0  0
 14 48  1  0  0  0
 14 49  1  0  0  0
 14 50  1  0  0  0
 15 16  1  0  0  0
 15 51  1  0  0  0
 15 52  1  0  0  0
 16 17  1  0  0  0
 16 53  1  0  0  0
 16 54  1  0  0  0
 17 18  1  0  0  0
 17 55  1  0  0  0
 17 56  1  0  0  0
 18 19  1  0  0  0
 18 57  1  0  0  0
 18 58  1  0  0  0
 19 20  1  0  0  0
 19 59  1  0  0  0
 19 60  1  0  0  0
 20 21  1  0  0  0
 20 61  1  0  0  0
 20 62  1  0  0  0
 21 63  1  0  0  0
 21 64  1  0  0  0
 21 65  1  0  0  0
M  END
