C:\Mis documentos\Gara\Polímeros (Tg)\Base de datos polímeros\057 trimer poly(vinyl n-butyl ether).hin
 OpenBabel04231221573D

 59 58  0  0  0  0  0  0  0  0999 V2000
   -2.4684   -3.2160   -1.0605 C   0  0  0  0  0
   -2.6231   -1.8100   -0.5085 C   0  0  0  0  0
   -3.5787   -1.7961    0.5597 O   0  0  0  0  0
   -4.9326   -1.8585    0.1207 C   0  0  0  0  0
   -5.7921   -1.6015    1.3469 C   0  0  0  0  0
   -7.2606   -1.6609    0.9894 C   0  0  0  0  0
   -8.1288   -1.4146    2.1963 C   0  0  0  0  0
   -1.3173   -1.3041    0.1055 C   0  0  0  0  0
   -0.9816    0.1389   -0.2720 C   0  0  0  0  0
   -1.2404    1.0243    0.8224 O   0  0  0  0  0
   -2.6260    1.3220    0.9884 C   0  0  0  0  0
   -2.7432    2.1599    2.2491 C   0  0  0  0  0
   -4.1920    2.5045    2.5177 C   0  0  0  0  0
   -4.3384    3.3213    3.7754 C   0  0  0  0  0
    0.5090    0.2769   -0.5752 C   0  0  0  0  0
    0.8412    1.6888   -1.0221 C   0  0  0  0  0
    2.2332    1.6970   -1.3353 O   0  0  0  0  0
    2.7068    3.0064   -1.6423 C   0  0  0  0  0
    4.1898    2.8737   -1.9397 C   0  0  0  0  0
    4.7878    4.2235   -2.2702 C   0  0  0  0  0
    6.2621    4.1134   -2.5617 C   0  0  0  0  0
   -1.6818   -3.2300   -1.8517 H   0  0  0  0  0
   -2.1777   -3.9210   -0.2456 H   0  0  0  0  0
   -3.4298   -3.5671   -1.5055 H   0  0  0  0  0
   -2.9745   -1.1229   -1.3299 H   0  0  0  0  0
   -5.1199   -1.0817   -0.6681 H   0  0  0  0  0
   -5.1410   -2.8733   -0.3108 H   0  0  0  0  0
   -5.5534   -2.3644    2.1329 H   0  0  0  0  0
   -5.5356   -0.5958    1.7733 H   0  0  0  0  0
   -7.4865   -0.8957    0.2001 H   0  0  0  0  0
   -7.4998   -2.6667    0.5525 H   0  0  0  0  0
   -9.2081   -1.4624    1.9136 H   0  0  0  0  0
   -7.9356   -2.1824    2.9841 H   0  0  0  0  0
   -7.9220   -0.4071    2.6319 H   0  0  0  0  0
   -0.4824   -1.9766   -0.2217 H   0  0  0  0  0
   -1.3890   -1.3763    1.2247 H   0  0  0  0  0
   -1.5808    0.4693   -1.1671 H   0  0  0  0  0
   -2.9906    1.8934    0.0926 H   0  0  0  0  0
   -3.2137    0.3684    1.0815 H   0  0  0  0  0
   -2.3142    1.5897    3.1138 H   0  0  0  0  0
   -2.1368    3.0955    2.1351 H   0  0  0  0  0
   -4.6094    3.0758    1.6466 H   0  0  0  0  0
   -4.7903    1.5586    2.6094 H   0  0  0  0  0
   -5.4129    3.5658    3.9563 H   0  0  0  0  0
   -3.9507    2.7580    4.6585 H   0  0  0  0  0
   -3.7676    4.2778    3.6928 H   0  0  0  0  0
    0.7884   -0.4487   -1.3813 H   0  0  0  0  0
    1.1051    0.0280    0.3400 H   0  0  0  0  0
    0.2541    1.9734   -1.9359 H   0  0  0  0  0
    0.6225    2.4229   -0.2015 H   0  0  0  0  0
    2.1516    3.4086   -2.5315 H   0  0  0  0  0
    2.5315    3.6870   -0.7666 H   0  0  0  0  0
    4.7072    2.4280   -1.0506 H   0  0  0  0  0
    4.3348    2.1655   -2.7964 H   0  0  0  0  0
    4.2595    4.6607   -3.1586 H   0  0  0  0  0
    4.6254    4.9265   -1.4105 H   0  0  0  0  0
    6.6854    5.1178   -2.8048 H   0  0  0  0  0
    6.8091    3.7041   -1.6781 H   0  0  0  0  0
    6.4427    3.4344   -3.4299 H   0  0  0  0  0
  1  2  1  0  0  0
  1 22  1  0  0  0
  1 23  1  0  0  0
  1 24  1  0  0  0
  2  3  1  0  0  0
  2  8  1  0  0  0
  2 25  1  0  0  0
  3  4  1  0  0  0
  4  5  1  0  0  0
  4 26  1  0  0  0
  4 27  1  0  0  0
  5  6  1  0  0  0
  5 28  1  0  0  0
  5 29  1  0  0  0
  6  7  1  0  0  0
  6 30  1  0  0  0
  6 31  1  0  0  0
  7 32  1  0  0  0
  7 33  1  0  0  0
  7 34  1  0  0  0
  8  9  1  0  0  0
  8 35  1  0  0  0
  8 36  1  0  0  0
  9 10  1  0  0  0
  9 15  1  0  0  0
  9 37  1  0  0  0
 10 11  1  0  0  0
 11 12  1  0  0  0
 11 38  1  0  0  0
 11 39  1  0  0  0
 12 13  1  0  0  0
 12 40  1  0  0  0
 12 41  1  0  0  0
 13 14  1  0  0  0
 13 42  1  0  0  0
 13 43  1  0  0  0
 14 44  1  0  0  0
 14 45  1  0  0  0
 14 46  1  0  0  0
 15 16  1  0  0  0
 15 47  1  0  0  0
 15 48  1  0  0  0
 16 17  1  0  0  0
 16 49  1  0  0  0
 16 50  1  0  0  0
 17 18  1  0  0  0
 18 19  1  0  0  0
 18 51  1  0  0  0
 18 52  1  0  0  0
 19 20  1  0  0  0
 19 53  1  0  0  0
 19 54  1  0  0  0
 20 21  1  0  0  0
 20 55  1  0  0  0
 20 56  1  0  0  0
 21 57  1  0  0  0
 21 58  1  0  0  0
 21 59  1  0  0  0
M  END
