C:\Mis documentos\Gara\Polímeros (Tg)\Base de datos polímeros\058 trimer poly(n-propyl acrylate).hin
 OpenBabel04231221573D

 56 55  0  0  0  0  0  0  0  0999 V2000
    2.3172   -1.9842   -1.4632 C   0  0  0  0  0
    3.2033   -1.0988   -0.6125 C   0  0  0  0  0
    2.5473   -3.4297   -1.1526 C   0  0  0  0  0
    3.4213   -3.9456   -0.4525 O   0  0  0  0  0
    1.6352   -4.2451   -1.7619 O   0  0  0  0  0
    1.7738   -5.6570   -1.5234 C   0  0  0  0  0
    0.6386   -6.3226   -2.2786 C   0  0  0  0  0
    0.6824   -7.8152   -2.0817 C   0  0  0  0  0
    2.8958    0.3779   -0.8429 C   0  0  0  0  0
    3.9676    1.2439   -0.1955 C   0  0  0  0  0
    1.5088    0.6724   -0.3274 C   0  0  0  0  0
    0.4629    0.6925   -0.9803 O   0  0  0  0  0
    1.4414    0.8956    1.0172 O   0  0  0  0  0
    0.1397    1.1886    1.5587 C   0  0  0  0  0
    0.3753    1.6281    2.9918 C   0  0  0  0  0
   -0.9344    1.9379    3.6675 C   0  0  0  0  0
    4.0602    2.6439   -0.7918 C   0  0  0  0  0
    5.4946    3.1379   -0.7824 C   0  0  0  0  0
    3.1911    3.6255   -0.0453 C   0  0  0  0  0
    2.2664    4.3006   -0.5007 O   0  0  0  0  0
    3.5125    3.7549    1.2769 O   0  0  0  0  0
    2.7102    4.6351    2.0761 C   0  0  0  0  0
    3.1610    6.0739    1.9128 C   0  0  0  0  0
    2.4067    6.9796    2.8498 C   0  0  0  0  0
    1.2322   -1.7406   -1.2952 H   0  0  0  0  0
    2.5277   -1.8237   -2.5549 H   0  0  0  0  0
    3.0664   -1.3473    0.4732 H   0  0  0  0  0
    4.2779   -1.3009   -0.8654 H   0  0  0  0  0
    2.7769   -5.9894   -1.8968 H   0  0  0  0  0
    1.7102   -5.8465   -0.4205 H   0  0  0  0  0
   -0.3396   -5.9109   -1.9164 H   0  0  0  0  0
    0.7201   -6.0713   -3.3684 H   0  0  0  0  0
   -0.1542   -8.2992   -2.6413 H   0  0  0  0  0
    1.6472   -8.2363   -2.4551 H   0  0  0  0  0
    0.5809   -8.0755   -1.0002 H   0  0  0  0  0
    2.8709    0.5751   -1.9539 H   0  0  0  0  0
    3.7867    1.3115    0.9107 H   0  0  0  0  0
    4.9603    0.7358   -0.3388 H   0  0  0  0  0
   -0.3429    1.9958    0.9483 H   0  0  0  0  0
   -0.4827    0.2585    1.5016 H   0  0  0  0  0
    0.9169    0.8174    3.5456 H   0  0  0  0  0
    1.0404    2.5328    2.9947 H   0  0  0  0  0
   -0.7541    2.2626    4.7208 H   0  0  0  0  0
   -1.4728    2.7572    3.1321 H   0  0  0  0  0
   -1.5943    1.0368    3.6842 H   0  0  0  0  0
    3.6860    2.6327   -1.8562 H   0  0  0  0  0
    6.1341    2.4649   -1.4024 H   0  0  0  0  0
    5.5511    4.1706   -1.2035 H   0  0  0  0  0
    5.8914    3.1553    0.2615 H   0  0  0  0  0
    1.6282    4.5205    1.8045 H   0  0  0  0  0
    2.8916    4.2613    3.1198 H   0  0  0  0  0
    4.2624    6.1437    2.1110 H   0  0  0  0  0
    2.9893    6.3881    0.8489 H   0  0  0  0  0
    2.7444    8.0359    2.7176 H   0  0  0  0  0
    1.3093    6.9327    2.6461 H   0  0  0  0  0
    2.5803    6.6844    3.9130 H   0  0  0  0  0
  1  2  1  0  0  0
  1  3  1  0  0  0
  1 25  1  0  0  0
  1 26  1  0  0  0
  2  9  1  0  0  0
  2 27  1  0  0  0
  2 28  1  0  0  0
  3  4  2  0  0  0
  3  5  1  0  0  0
  5  6  1  0  0  0
  6  7  1  0  0  0
  6 29  1  0  0  0
  6 30  1  0  0  0
  7  8  1  0  0  0
  7 31  1  0  0  0
  7 32  1  0  0  0
  8 33  1  0  0  0
  8 34  1  0  0  0
  8 35  1  0  0  0
  9 10  1  0  0  0
  9 11  1  0  0  0
  9 36  1  0  0  0
 10 17  1  0  0  0
 10 37  1  0  0  0
 10 38  1  0  0  0
 11 12  2  0  0  0
 11 13  1  0  0  0
 13 14  1  0  0  0
 14 15  1  0  0  0
 14 39  1  0  0  0
 14 40  1  0  0  0
 15 16  1  0  0  0
 15 41  1  0  0  0
 15 42  1  0  0  0
 16 43  1  0  0  0
 16 44  1  0  0  0
 16 45  1  0  0  0
 17 18  1  0  0  0
 17 19  1  0  0  0
 17 46  1  0  0  0
 18 47  1  0  0  0
 18 48  1  0  0  0
 18 49  1  0  0  0
 19 20  2  0  0  0
 19 21  1  0  0  0
 21 22  1  0  0  0
 22 23  1  0  0  0
 22 50  1  0  0  0
 22 51  1  0  0  0
 23 24  1  0  0  0
 23 52  1  0  0  0
 23 53  1  0  0  0
 24 54  1  0  0  0
 24 55  1  0  0  0
 24 56  1  0  0  0
M  END
