C:\Mis documentos\Gara\Polímeros (Tg)\Base de datos polímeros\059 trimer poly(vinylisobutyl ether).hin
 OpenBabel04231221583D

 59 58  0  0  0  0  0  0  0  0999 V2000
   -4.5230    2.3444    0.7573 C   0  0  0  0  0
   -3.0511    2.6052    0.4964 C   0  0  0  0  0
   -2.8574    3.9020   -0.0796 O   0  0  0  0  0
   -3.0228    4.9638    0.8570 C   0  0  0  0  0
   -2.7031    6.2616    0.1182 C   0  0  0  0  0
   -3.2018    7.4399    0.9258 C   0  0  0  0  0
   -1.2179    6.3756   -0.1468 C   0  0  0  0  0
   -2.4743    1.6246   -0.5233 C   0  0  0  0  0
   -2.1295    0.2771    0.1067 C   0  0  0  0  0
   -0.7171    0.1422    0.2988 O   0  0  0  0  0
   -0.2029    0.9753    1.3351 C   0  0  0  0  0
    1.2601    0.5856    1.5358 C   0  0  0  0  0
    1.7699    1.1847    2.8284 C   0  0  0  0  0
    2.1005    1.0362    0.3611 C   0  0  0  0  0
   -2.5325   -0.8677   -0.8192 C   0  0  0  0  0
   -2.2669   -2.2109   -0.1643 C   0  0  0  0  0
   -2.7143   -3.2056   -1.0846 O   0  0  0  0  0
   -2.4185   -4.5243   -0.6297 C   0  0  0  0  0
   -2.9126   -5.5142   -1.6809 C   0  0  0  0  0
   -2.1954   -5.3062   -2.9967 C   0  0  0  0  0
   -4.4112   -5.4094   -1.8597 C   0  0  0  0  0
   -5.1277    2.6213   -0.1393 H   0  0  0  0  0
   -4.8810    2.9468    1.6258 H   0  0  0  0  0
   -4.6828    1.2628    0.9815 H   0  0  0  0  0
   -2.4728    2.5373    1.4625 H   0  0  0  0  0
   -4.0821    4.9738    1.2283 H   0  0  0  0  0
   -2.3290    4.8177    1.7272 H   0  0  0  0  0
   -3.2421    6.2381   -0.8710 H   0  0  0  0  0
   -2.9595    8.3942    0.3989 H   0  0  0  0  0
   -4.3082    7.3818    1.0644 H   0  0  0  0  0
   -2.7188    7.4602    1.9325 H   0  0  0  0  0
   -1.0025    7.2847   -0.7578 H   0  0  0  0  0
   -0.6502    6.4507    0.8118 H   0  0  0  0  0
   -0.8621    5.4742   -0.7023 H   0  0  0  0  0
   -1.5500    2.0704   -0.9782 H   0  0  0  0  0
   -3.2169    1.4860   -1.3508 H   0  0  0  0  0
   -2.6480    0.1620    1.1014 H   0  0  0  0  0
   -0.7867    0.8104    2.2806 H   0  0  0  0  0
   -0.2921    2.0517    1.0299 H   0  0  0  0  0
    1.3139   -0.5377    1.6039 H   0  0  0  0  0
    2.8435    0.9158    2.9769 H   0  0  0  0  0
    1.6849    2.2980    2.8066 H   0  0  0  0  0
    1.1841    0.8012    3.6982 H   0  0  0  0  0
    2.1119    2.1504    0.2885 H   0  0  0  0  0
    1.6790    0.6221   -0.5870 H   0  0  0  0  0
    3.1513    0.6777    0.4769 H   0  0  0  0  0
   -1.9555   -0.8004   -1.7770 H   0  0  0  0  0
   -3.6222   -0.7744   -1.0613 H   0  0  0  0  0
   -2.8366   -2.3115    0.7981 H   0  0  0  0  0
   -1.1710   -2.3381    0.0426 H   0  0  0  0  0
   -1.3098   -4.6304   -0.4853 H   0  0  0  0  0
   -2.9367   -4.7043    0.3504 H   0  0  0  0  0
   -2.6653   -6.5432   -1.2922 H   0  0  0  0  0
   -2.5590   -6.0383   -3.7569 H   0  0  0  0  0
   -1.0951   -5.4428   -2.8658 H   0  0  0  0  0
   -2.3808   -4.2717   -3.3752 H   0  0  0  0  0
   -4.6864   -4.3795   -2.1934 H   0  0  0  0  0
   -4.9337   -5.6207   -0.8960 H   0  0  0  0  0
   -4.7628   -6.1418   -2.6253 H   0  0  0  0  0
  1  2  1  0  0  0
  1 22  1  0  0  0
  1 23  1  0  0  0
  1 24  1  0  0  0
  2  3  1  0  0  0
  2  8  1  0  0  0
  2 25  1  0  0  0
  3  4  1  0  0  0
  4  5  1  0  0  0
  4 26  1  0  0  0
  4 27  1  0  0  0
  5  6  1  0  0  0
  5  7  1  0  0  0
  5 28  1  0  0  0
  6 29  1  0  0  0
  6 30  1  0  0  0
  6 31  1  0  0  0
  7 32  1  0  0  0
  7 33  1  0  0  0
  7 34  1  0  0  0
  8  9  1  0  0  0
  8 35  1  0  0  0
  8 36  1  0  0  0
  9 10  1  0  0  0
  9 15  1  0  0  0
  9 37  1  0  0  0
 10 11  1  0  0  0
 11 12  1  0  0  0
 11 38  1  0  0  0
 11 39  1  0  0  0
 12 13  1  0  0  0
 12 14  1  0  0  0
 12 40  1  0  0  0
 13 41  1  0  0  0
 13 42  1  0  0  0
 13 43  1  0  0  0
 14 44  1  0  0  0
 14 45  1  0  0  0
 14 46  1  0  0  0
 15 16  1  0  0  0
 15 47  1  0  0  0
 15 48  1  0  0  0
 16 17  1  0  0  0
 16 49  1  0  0  0
 16 50  1  0  0  0
 17 18  1  0  0  0
 18 19  1  0  0  0
 18 51  1  0  0  0
 18 52  1  0  0  0
 19 20  1  0  0  0
 19 21  1  0  0  0
 19 53  1  0  0  0
 20 54  1  0  0  0
 20 55  1  0  0  0
 20 56  1  0  0  0
 21 57  1  0  0  0
 21 58  1  0  0  0
 21 59  1  0  0  0
M  END
