C:\Mis documentos\Gara\Polímeros (Tg)\Base de datos polímeros\060 trimer poly(vinyl sec-butyl ether).hin
 OpenBabel04231221583D

 59 58  0  0  0  0  0  0  0  0999 V2000
   -3.8842   -0.7251   -1.9823 C   0  0  0  0  0
   -3.3685   -0.7646   -0.5549 C   0  0  0  0  0
   -3.5755   -2.1057   -0.1018 O   0  0  0  0  0
   -3.5306   -2.2508    1.3249 C   0  0  0  0  0
   -4.9436   -2.5047    1.8440 C   0  0  0  0  0
   -5.8191   -1.2843    1.7404 C   0  0  0  0  0
   -2.6304   -3.4396    1.6177 C   0  0  0  0  0
   -1.8870   -0.3989   -0.4728 C   0  0  0  0  0
   -1.6778    1.0118    0.0704 C   0  0  0  0  0
   -2.0718    0.9674    1.4463 O   0  0  0  0  0
   -2.4733    2.2336    1.9847 C   0  0  0  0  0
   -3.9586    2.4554    1.7096 C   0  0  0  0  0
   -4.3679    3.8864    1.9356 C   0  0  0  0  0
   -2.1743    2.1623    3.4720 C   0  0  0  0  0
   -0.2144    1.4329   -0.0292 C   0  0  0  0  0
    0.0878    2.0292   -1.3924 C   0  0  0  0  0
    1.4734    2.3590   -1.3890 O   0  0  0  0  0
    1.8726    3.1471   -2.5174 C   0  0  0  0  0
    3.3023    3.5895   -2.2094 C   0  0  0  0  0
    3.6639    4.8475   -2.9538 C   0  0  0  0  0
    1.7943    2.3430   -3.8012 C   0  0  0  0  0
   -3.7119    0.2903   -2.4105 H   0  0  0  0  0
   -3.3570   -1.4837   -2.6084 H   0  0  0  0  0
   -4.9766   -0.9529   -1.9982 H   0  0  0  0  0
   -3.9676   -0.0579    0.0902 H   0  0  0  0  0
   -3.1061   -1.3228    1.8038 H   0  0  0  0  0
   -5.3988   -3.3463    1.2591 H   0  0  0  0  0
   -4.8713   -2.8313    2.9144 H   0  0  0  0  0
   -5.3627   -0.4196    2.2819 H   0  0  0  0  0
   -5.9535   -0.9954    0.6689 H   0  0  0  0  0
   -6.8243   -1.4886    2.1814 H   0  0  0  0  0
   -2.5791   -3.6108    2.7186 H   0  0  0  0  0
   -3.0267   -4.3574    1.1221 H   0  0  0  0  0
   -1.6026   -3.2445    1.2291 H   0  0  0  0  0
   -1.4119   -0.4640   -1.4849 H   0  0  0  0  0
   -1.3642   -1.1309    0.1986 H   0  0  0  0  0
   -2.3283    1.7399   -0.4914 H   0  0  0  0  0
   -1.8734    3.0618    1.5131 H   0  0  0  0  0
   -4.1784    2.1642    0.6479 H   0  0  0  0  0
   -4.5590    1.7721    2.3661 H   0  0  0  0  0
   -5.4532    4.0166    1.7056 H   0  0  0  0  0
   -4.1961    4.1872    2.9976 H   0  0  0  0  0
   -3.7840    4.5752    1.2779 H   0  0  0  0  0
   -2.5074    3.1054    3.9655 H   0  0  0  0  0
   -2.7084    1.2979    3.9336 H   0  0  0  0  0
   -1.0786    2.0274    3.6343 H   0  0  0  0  0
    0.4526    0.5510    0.1525 H   0  0  0  0  0
    0.0176    2.1875    0.7671 H   0  0  0  0  0
   -0.1169    1.2875   -2.2102 H   0  0  0  0  0
   -0.5288    2.9502   -1.5738 H   0  0  0  0  0
    1.1992    4.0484   -2.5895 H   0  0  0  0  0
    3.3953    3.7595   -1.1038 H   0  0  0  0  0
    4.0093    2.7625   -2.4784 H   0  0  0  0  0
    4.7186    5.1363   -2.7259 H   0  0  0  0  0
    3.5702    4.6993   -4.0570 H   0  0  0  0  0
    2.9959    5.6917   -2.6555 H   0  0  0  0  0
    2.3133    2.8916   -4.6230 H   0  0  0  0  0
    2.2825    1.3485   -3.6647 H   0  0  0  0  0
    0.7307    2.1788   -4.0968 H   0  0  0  0  0
  1  2  1  0  0  0
  1 22  1  0  0  0
  1 23  1  0  0  0
  1 24  1  0  0  0
  2  3  1  0  0  0
  2  8  1  0  0  0
  2 25  1  0  0  0
  3  4  1  0  0  0
  4  5  1  0  0  0
  4  7  1  0  0  0
  4 26  1  0  0  0
  5  6  1  0  0  0
  5 27  1  0  0  0
  5 28  1  0  0  0
  6 29  1  0  0  0
  6 30  1  0  0  0
  6 31  1  0  0  0
  7 32  1  0  0  0
  7 33  1  0  0  0
  7 34  1  0  0  0
  8  9  1  0  0  0
  8 35  1  0  0  0
  8 36  1  0  0  0
  9 10  1  0  0  0
  9 15  1  0  0  0
  9 37  1  0  0  0
 10 11  1  0  0  0
 11 12  1  0  0  0
 11 14  1  0  0  0
 11 38  1  0  0  0
 12 13  1  0  0  0
 12 39  1  0  0  0
 12 40  1  0  0  0
 13 41  1  0  0  0
 13 42  1  0  0  0
 13 43  1  0  0  0
 14 44  1  0  0  0
 14 45  1  0  0  0
 14 46  1  0  0  0
 15 16  1  0  0  0
 15 47  1  0  0  0
 15 48  1  0  0  0
 16 17  1  0  0  0
 16 49  1  0  0  0
 16 50  1  0  0  0
 17 18  1  0  0  0
 18 19  1  0  0  0
 18 21  1  0  0  0
 18 51  1  0  0  0
 19 20  1  0  0  0
 19 52  1  0  0  0
 19 53  1  0  0  0
 20 54  1  0  0  0
 20 55  1  0  0  0
 20 56  1  0  0  0
 21 57  1  0  0  0
 21 58  1  0  0  0
 21 59  1  0  0  0
M  END
