C:\Mis documentos\Gara\Polímeros (Tg)\Base de datos polímeros\061 trimer poly(pentafluoroethyl ethylene).hin
 OpenBabel04231222083D

 38 37  0  0  0  0  0  0  0  0999 V2000
   -1.2378   -3.5090    1.2335 C   0  0  0  0  0
   -0.6725   -2.3007    0.5147 C   0  0  0  0  0
    0.8683   -2.4690    0.3491 C   0  0  0  0  0
    1.2243   -3.4539   -0.5389 F   0  0  0  0  0
    1.5462   -1.0722   -0.1169 C   0  0  0  0  0
    1.4806   -2.8695    1.5133 F   0  0  0  0  0
    2.8899   -1.0378    0.1185 F   0  0  0  0  0
    1.3923   -0.8209   -1.4510 F   0  0  0  0  0
    1.0304    0.0193    0.5274 F   0  0  0  0  0
   -1.3648   -2.1011   -0.8264 C   0  0  0  0  0
   -1.8489   -0.6706   -1.0333 C   0  0  0  0  0
   -2.4120   -0.5288   -2.4806 C   0  0  0  0  0
   -1.5705   -1.0564   -3.4310 F   0  0  0  0  0
   -3.5779   -1.2264   -2.6841 F   0  0  0  0  0
   -2.6624    1.0314   -2.8418 C   0  0  0  0  0
   -2.7521    1.2438   -4.1872 F   0  0  0  0  0
   -3.8182    1.5262   -2.3071 F   0  0  0  0  0
   -1.6649    1.8554   -2.4012 F   0  0  0  0  0
   -2.8926   -0.2723    0.0010 C   0  0  0  0  0
   -2.4919    0.9920    0.7298 C   0  0  0  0  0
   -3.4829    1.3275    1.8636 C   0  0  0  0  0
   -4.7806    1.4681    1.4376 F   0  0  0  0  0
   -3.5745    0.3414    2.8170 F   0  0  0  0  0
   -2.9943    2.7009    2.5626 C   0  0  0  0  0
   -3.8039    3.0968    3.5873 F   0  0  0  0  0
   -1.7383    2.5991    3.0918 F   0  0  0  0  0
   -2.9509    3.7492    1.6877 F   0  0  0  0  0
   -2.3341   -3.3725    1.3981 H   0  0  0  0  0
   -1.0739   -4.4332    0.6279 H   0  0  0  0  0
   -0.7410   -3.6400    2.2258 H   0  0  0  0  0
   -0.8123   -1.3928    1.1681 H   0  0  0  0  0
   -2.2475   -2.7916   -0.9067 H   0  0  0  0  0
   -0.6612   -2.3713   -1.6618 H   0  0  0  0  0
   -0.9558    0.0179   -0.9777 H   0  0  0  0  0
   -3.0302   -1.1015    0.7476 H   0  0  0  0  0
   -3.8929   -0.1142   -0.4883 H   0  0  0  0  0
   -1.4717    0.8843    1.1858 H   0  0  0  0  0
   -2.4750    1.8597    0.0160 H   0  0  0  0  0
  1  2  1  0  0  0
  1 28  1  0  0  0
  1 29  1  0  0  0
  1 30  1  0  0  0
  2  3  1  0  0  0
  2 10  1  0  0  0
  2 31  1  0  0  0
  3  4  1  0  0  0
  3  5  1  0  0  0
  3  6  1  0  0  0
  5  7  1  0  0  0
  5  8  1  0  0  0
  5  9  1  0  0  0
 10 11  1  0  0  0
 10 32  1  0  0  0
 10 33  1  0  0  0
 11 12  1  0  0  0
 11 19  1  0  0  0
 11 34  1  0  0  0
 12 13  1  0  0  0
 12 14  1  0  0  0
 12 15  1  0  0  0
 15 16  1  0  0  0
 15 17  1  0  0  0
 15 18  1  0  0  0
 19 20  1  0  0  0
 19 35  1  0  0  0
 19 36  1  0  0  0
 20 21  1  0  0  0
 20 37  1  0  0  0
 20 38  1  0  0  0
 21 22  1  0  0  0
 21 23  1  0  0  0
 21 24  1  0  0  0
 24 25  1  0  0  0
 24 26  1  0  0  0
 24 27  1  0  0  0
M  END
