C:\Mis documentos\Gara\Polímeros (Tg)\Base de datos polímeros\062 trimer poly(2,3,3,3-tetrafluoropropylene).hin
 OpenBabel04231222093D

 29 28  0  0  0  0  0  0  0  0999 V2000
   -1.7772   -3.1909    0.6861 C   0  0  0  0  0
   -2.2717   -1.7415    0.7364 C   0  0  0  0  0
   -3.8725   -1.7931    0.7767 C   0  0  0  0  0
   -4.4719   -0.5657    0.8021 F   0  0  0  0  0
   -4.4153   -2.4400   -0.3025 F   0  0  0  0  0
   -4.3549   -2.4541    1.8737 F   0  0  0  0  0
   -1.8418   -1.1199    1.8954 F   0  0  0  0  0
   -1.8173   -1.0089   -0.5377 C   0  0  0  0  0
   -1.5394    0.5020   -0.4017 C   0  0  0  0  0
   -1.5494    1.0870   -1.8980 C   0  0  0  0  0
   -1.3077    2.4287   -1.9699 F   0  0  0  0  0
   -0.6129    0.4968   -2.7053 F   0  0  0  0  0
   -2.7445    0.9023   -2.5393 F   0  0  0  0  0
   -2.5305    1.1474    0.3108 F   0  0  0  0  0
   -0.1448    0.7199    0.2114 C   0  0  0  0  0
    0.0596    2.0997    0.8405 C   0  0  0  0  0
    1.2601    2.0036    1.8763 C   0  0  0  0  0
    1.6148    3.2176    2.3960 F   0  0  0  0  0
    0.9636    1.2174    2.9584 F   0  0  0  0  0
    2.4108    1.4777    1.3534 F   0  0  0  0  0
    0.3464    3.0705   -0.0926 F   0  0  0  0  0
   -0.6625   -3.2122    0.7225 H   0  0  0  0  0
   -2.1767   -3.7547    1.5640 H   0  0  0  0  0
   -2.1329   -3.6730   -0.2551 H   0  0  0  0  0
   -2.6129   -1.1598   -1.3184 H   0  0  0  0  0
   -0.8731   -1.4850   -0.9157 H   0  0  0  0  0
    0.6292    0.5530   -0.5840 H   0  0  0  0  0
    0.0050   -0.0469    1.0200 H   0  0  0  0  0
   -0.8510    2.4087    1.4325 H   0  0  0  0  0
  1  2  1  0  0  0
  1 22  1  0  0  0
  1 23  1  0  0  0
  1 24  1  0  0  0
  2  3  1  0  0  0
  2  7  1  0  0  0
  2  8  1  0  0  0
  3  4  1  0  0  0
  3  5  1  0  0  0
  3  6  1  0  0  0
  8  9  1  0  0  0
  8 25  1  0  0  0
  8 26  1  0  0  0
  9 10  1  0  0  0
  9 14  1  0  0  0
  9 15  1  0  0  0
 10 11  1  0  0  0
 10 12  1  0  0  0
 10 13  1  0  0  0
 15 16  1  0  0  0
 15 27  1  0  0  0
 15 28  1  0  0  0
 16 17  1  0  0  0
 16 21  1  0  0  0
 16 29  1  0  0  0
 17 18  1  0  0  0
 17 19  1  0  0  0
 17 20  1  0  0  0
M  END
