C:\Mis documentos\Gara\Polímeros (Tg)\Base de datos polímeros\063 trimer poly(3,3-dimethylbutyl methacrylate).hin
 OpenBabel04231222093D

 92 91  0  0  0  0  0  0  0  0999 V2000
    0.1894   -3.5542    0.0592 C   0  0  0  0  0
   -0.5364   -2.2962   -0.4316 C   0  0  0  0  0
   -0.9815   -2.5387   -1.8698 C   0  0  0  0  0
   -1.7601   -2.0959    0.4395 C   0  0  0  0  0
   -2.9237   -1.9050    0.0803 O   0  0  0  0  0
   -1.4970   -2.1787    1.7788 O   0  0  0  0  0
   -2.5969   -2.0152    2.6881 C   0  0  0  0  0
   -3.4030   -3.2950    2.7880 C   0  0  0  0  0
   -4.3935   -3.2897    3.9515 C   0  0  0  0  0
   -5.3074   -4.5009    3.8004 C   0  0  0  0  0
   -3.6587   -3.3916    5.2800 C   0  0  0  0  0
   -5.2377   -2.0247    3.9333 C   0  0  0  0  0
    0.4588   -1.1371   -0.3186 C   0  0  0  0  0
    0.0163    0.3214   -0.5196 C   0  0  0  0  0
   -1.1400    0.4861   -1.4882 C   0  0  0  0  0
   -0.3907    0.9172    0.8190 C   0  0  0  0  0
   -1.4776    1.4012    1.1371 O   0  0  0  0  0
    0.6192    0.9237    1.7441 O   0  0  0  0  0
    0.3335    1.4667    3.0424 C   0  0  0  0  0
   -0.4613    0.4741    3.8660 C   0  0  0  0  0
   -0.6587    0.8977    5.3194 C   0  0  0  0  0
   -1.5819   -0.1210    5.9805 C   0  0  0  0  0
    0.6697    0.9128    6.0601 C   0  0  0  0  0
   -1.3025    2.2734    5.3971 C   0  0  0  0  0
    1.2479    1.0874   -1.0372 C   0  0  0  0  0
    1.0598    2.5915   -1.1650 C   0  0  0  0  0
    2.3996    3.3006   -1.0733 C   0  0  0  0  0
    0.3906    3.0018   -2.4523 C   0  0  0  0  0
   -0.4407    3.8998   -2.6041 O   0  0  0  0  0
    0.7938    2.3022   -3.5552 O   0  0  0  0  0
    0.1841    2.6764   -4.8066 C   0  0  0  0  0
    0.6427    1.6402   -5.8138 C   0  0  0  0  0
    0.0577    1.8653   -7.2077 C   0  0  0  0  0
    0.5921    0.7679   -8.1221 C   0  0  0  0  0
   -1.4610    1.7836   -7.1757 C   0  0  0  0  0
    0.4838    3.2179   -7.7576 C   0  0  0  0  0
    0.5346   -3.4193    1.1125 H   0  0  0  0  0
   -0.4975   -4.4330    0.0216 H   0  0  0  0  0
    1.0713   -3.7571   -0.5934 H   0  0  0  0  0
   -1.8470   -1.8874   -2.1424 H   0  0  0  0  0
   -0.1378   -2.3389   -2.5721 H   0  0  0  0  0
   -1.3061   -3.6007   -1.9956 H   0  0  0  0  0
   -2.0802   -1.7694    3.6569 H   0  0  0  0  0
   -3.2363   -1.1553    2.3562 H   0  0  0  0  0
   -3.9630   -3.4362    1.8247 H   0  0  0  0  0
   -2.7044   -4.1647    2.9047 H   0  0  0  0  0
   -6.0186   -4.5572    4.6589 H   0  0  0  0  0
   -5.8957   -4.4267    2.8547 H   0  0  0  0  0
   -4.7041   -5.4396    3.7744 H   0  0  0  0  0
   -4.3929   -3.4534    6.1191 H   0  0  0  0  0
   -3.0168   -4.3046    5.3005 H   0  0  0  0  0
   -3.0116   -2.4956    5.4449 H   0  0  0  0  0
   -6.0639   -2.1032    4.6803 H   0  0  0  0  0
   -4.6141   -1.1341    4.1904 H   0  0  0  0  0
   -5.6830   -1.8700    2.9213 H   0  0  0  0  0
    1.2635   -1.3558   -1.0754 H   0  0  0  0  0
    0.9362   -1.2010    0.6995 H   0  0  0  0  0
   -1.4000    1.5694   -1.5924 H   0  0  0  0  0
   -0.8536    0.0865   -2.4905 H   0  0  0  0  0
   -2.0488   -0.0453   -1.1112 H   0  0  0  0  0
    1.3578    1.6417    3.4676 H   0  0  0  0  0
   -0.2187    2.4362    2.9316 H   0  0  0  0  0
   -1.4674    0.3447    3.3799 H   0  0  0  0  0
    0.0534   -0.5229    3.8376 H   0  0  0  0  0
   -1.7391    0.1395    7.0543 H   0  0  0  0  0
   -2.5744   -0.1359    5.4675 H   0  0  0  0  0
   -1.1358   -1.1431    5.9220 H   0  0  0  0  0
    0.5033    1.1431    7.1401 H   0  0  0  0  0
    1.1706   -0.0816    5.9807 H   0  0  0  0  0
    1.3491    1.6902    5.6358 H   0  0  0  0  0
   -1.5861    2.5059    6.4518 H   0  0  0  0  0
   -0.5932    3.0594    5.0425 H   0  0  0  0  0
   -2.2206    2.3085    4.7629 H   0  0  0  0  0
    1.5364    0.6638   -2.0356 H   0  0  0  0  0
    2.0929    0.8979   -0.3203 H   0  0  0  0  0
    0.3930    2.9600   -0.3309 H   0  0  0  0  0
    2.2629    4.4023   -1.1950 H   0  0  0  0  0
    2.8636    3.1060   -0.0765 H   0  0  0  0  0
    3.0897    2.9329   -1.8702 H   0  0  0  0  0
   -0.9302    2.6802   -4.6820 H   0  0  0  0  0
    0.5321    3.7084   -5.0703 H   0  0  0  0  0
    1.7626    1.6606   -5.8758 H   0  0  0  0  0
    0.3456    0.6215   -5.4496 H   0  0  0  0  0
    0.1898    0.8977   -9.1552 H   0  0  0  0  0
    1.7066    0.8080   -8.1661 H   0  0  0  0  0
    0.2841   -0.2359   -7.7436 H   0  0  0  0  0
   -1.8671    1.8067   -8.2158 H   0  0  0  0  0
   -1.7893    0.8358   -6.6860 H   0  0  0  0  0
   -1.8920    2.6459   -6.6125 H   0  0  0  0  0
    0.1566    3.3191   -8.8205 H   0  0  0  0  0
    0.0227    4.0462   -7.1679 H   0  0  0  0  0
    1.5943    3.3224   -7.7147 H   0  0  0  0  0
  1  2  1  0  0  0
  1 37  1  0  0  0
  1 38  1  0  0  0
  1 39  1  0  0  0
  2  3  1  0  0  0
  2  4  1  0  0  0
  2 13  1  0  0  0
  3 40  1  0  0  0
  3 41  1  0  0  0
  3 42  1  0  0  0
  4  5  2  0  0  0
  4  6  1  0  0  0
  6  7  1  0  0  0
  7  8  1  0  0  0
  7 43  1  0  0  0
  7 44  1  0  0  0
  8  9  1  0  0  0
  8 45  1  0  0  0
  8 46  1  0  0  0
  9 10  1  0  0  0
  9 11  1  0  0  0
  9 12  1  0  0  0
 10 47  1  0  0  0
 10 48  1  0  0  0
 10 49  1  0  0  0
 11 50  1  0  0  0
 11 51  1  0  0  0
 11 52  1  0  0  0
 12 53  1  0  0  0
 12 54  1  0  0  0
 12 55  1  0  0  0
 13 14  1  0  0  0
 13 56  1  0  0  0
 13 57  1  0  0  0
 14 15  1  0  0  0
 14 16  1  0  0  0
 14 25  1  0  0  0
 15 58  1  0  0  0
 15 59  1  0  0  0
 15 60  1  0  0  0
 16 17  2  0  0  0
 16 18  1  0  0  0
 18 19  1  0  0  0
 19 20  1  0  0  0
 19 61  1  0  0  0
 19 62  1  0  0  0
 20 21  1  0  0  0
 20 63  1  0  0  0
 20 64  1  0  0  0
 21 22  1  0  0  0
 21 23  1  0  0  0
 21 24  1  0  0  0
 22 65  1  0  0  0
 22 66  1  0  0  0
 22 67  1  0  0  0
 23 68  1  0  0  0
 23 69  1  0  0  0
 23 70  1  0  0  0
 24 71  1  0  0  0
 24 72  1  0  0  0
 24 73  1  0  0  0
 25 26  1  0  0  0
 25 74  1  0  0  0
 25 75  1  0  0  0
 26 27  1  0  0  0
 26 28  1  0  0  0
 26 76  1  0  0  0
 27 77  1  0  0  0
 27 78  1  0  0  0
 27 79  1  0  0  0
 28 29  2  0  0  0
 28 30  1  0  0  0
 30 31  1  0  0  0
 31 32  1  0  0  0
 31 80  1  0  0  0
 31 81  1  0  0  0
 32 33  1  0  0  0
 32 82  1  0  0  0
 32 83  1  0  0  0
 33 34  1  0  0  0
 33 35  1  0  0  0
 33 36  1  0  0  0
 34 84  1  0  0  0
 34 85  1  0  0  0
 34 86  1  0  0  0
 35 87  1  0  0  0
 35 88  1  0  0  0
 35 89  1  0  0  0
 36 90  1  0  0  0
 36 91  1  0  0  0
 36 92  1  0  0  0
M  END
