C:\Mis documentos\Gara\Polímeros (Tg)\Base de datos polímeros\064 trimer poly(N-butyl acrylamide).hin
 OpenBabel04231222103D

 68 67  0  0  0  0  0  0  0  0999 V2000
   -4.0691   -5.8334    1.3087 C   0  0  0  0  0
   -3.4610   -4.5703    0.7405 C   0  0  0  0  0
   -3.8364   -3.3859    1.6359 C   0  0  0  0  0
   -3.2608   -3.1981    2.7305 O   0  0  0  0  0
   -4.8669   -2.5721    1.2020 N   0  0  0  0  0
   -5.2343   -1.3728    1.9060 C   0  0  0  0  0
   -4.6778   -0.0794    1.3076 C   0  0  0  0  0
   -5.2515    1.1202    2.0298 C   0  0  0  0  0
   -4.7456    2.4099    1.4370 C   0  0  0  0  0
   -1.9428   -4.6752    0.6743 C   0  0  0  0  0
   -1.3461   -3.4246    0.0383 C   0  0  0  0  0
    0.0071   -3.0830    0.6607 C   0  0  0  0  0
    1.0646   -3.0995   -0.0046 O   0  0  0  0  0
   -0.0041   -2.7359    1.9934 N   0  0  0  0  0
    1.1786   -2.3609    2.7148 C   0  0  0  0  0
    1.1653   -0.9206    3.2321 C   0  0  0  0  0
    2.4297   -0.6428    4.0167 C   0  0  0  0  0
    2.4632    0.7771    4.5204 C   0  0  0  0  0
   -1.2423   -3.5839   -1.4716 C   0  0  0  0  0
   -1.2668   -2.2540   -2.1936 C   0  0  0  0  0
   -2.6389   -1.6014   -2.1652 C   0  0  0  0  0
   -3.6187   -2.1120   -1.5777 O   0  0  0  0  0
   -2.7692   -0.4107   -2.8496 N   0  0  0  0  0
   -3.9829    0.3574   -2.8700 C   0  0  0  0  0
   -3.8202    1.7966   -2.3774 C   0  0  0  0  0
   -5.1251    2.5480   -2.5355 C   0  0  0  0  0
   -4.9725    4.0000   -2.1619 C   0  0  0  0  0
   -3.7702   -6.7132    0.6894 H   0  0  0  0  0
   -3.7191   -5.9969    2.3570 H   0  0  0  0  0
   -5.1832   -5.7603    1.3120 H   0  0  0  0  0
   -3.8483   -4.4045   -0.3059 H   0  0  0  0  0
   -5.0645   -2.5794    0.2235 H   0  0  0  0  0
   -6.3617   -1.3162    1.9012 H   0  0  0  0  0
   -4.8918   -1.4584    2.9770 H   0  0  0  0  0
   -3.5598   -0.0727    1.3940 H   0  0  0  0  0
   -4.9256   -0.0184    0.2141 H   0  0  0  0  0
   -6.3721    1.0944    1.9716 H   0  0  0  0  0
   -4.9759    1.0695    3.1165 H   0  0  0  0  0
   -5.1727    3.2837    1.9854 H   0  0  0  0  0
   -3.6317    2.4631    1.4995 H   0  0  0  0  0
   -5.0385    2.4900    0.3602 H   0  0  0  0  0
   -1.6613   -5.5802    0.0749 H   0  0  0  0  0
   -1.5529   -4.8298    1.7146 H   0  0  0  0  0
   -2.0327   -2.5493    0.2440 H   0  0  0  0  0
   -0.8720   -2.7206    2.4825 H   0  0  0  0  0
    1.2903   -3.0560    3.5980 H   0  0  0  0  0
    2.0755   -2.5018    2.0449 H   0  0  0  0  0
    1.0908   -0.2053    2.3721 H   0  0  0  0  0
    0.2707   -0.7522    3.8867 H   0  0  0  0  0
    2.4962   -1.3517    4.8843 H   0  0  0  0  0
    3.3239   -0.8326    3.3655 H   0  0  0  0  0
    3.3998    0.9603    5.1004 H   0  0  0  0  0
    2.4291    1.4985    3.6684 H   0  0  0  0  0
    1.5900    0.9805    5.1863 H   0  0  0  0  0
   -2.1016   -4.2107   -1.8309 H   0  0  0  0  0
   -0.2854   -4.1138   -1.7260 H   0  0  0  0  0
   -0.5164   -1.5628   -1.7233 H   0  0  0  0  0
   -0.9648   -2.4135   -3.2633 H   0  0  0  0  0
   -1.9618    0.0062   -3.2459 H   0  0  0  0  0
   -4.3664    0.3814   -3.9322 H   0  0  0  0  0
   -4.7565   -0.1640   -2.2349 H   0  0  0  0  0
   -3.5146    1.8004   -1.2975 H   0  0  0  0  0
   -3.0142    2.3176   -2.9577 H   0  0  0  0  0
   -5.4798    2.4694   -3.5975 H   0  0  0  0  0
   -5.9088    2.0716   -1.8880 H   0  0  0  0  0
   -5.9483    4.5318   -2.2717 H   0  0  0  0  0
   -4.6320    4.1019   -1.1025 H   0  0  0  0  0
   -4.2220    4.5007   -2.8203 H   0  0  0  0  0
  1  2  1  0  0  0
  1 28  1  0  0  0
  1 29  1  0  0  0
  1 30  1  0  0  0
  2  3  1  0  0  0
  2 10  1  0  0  0
  2 31  1  0  0  0
  3  4  2  0  0  0
  3  5  1  0  0  0
  5  6  1  0  0  0
  5 32  1  0  0  0
  6  7  1  0  0  0
  6 33  1  0  0  0
  6 34  1  0  0  0
  7  8  1  0  0  0
  7 35  1  0  0  0
  7 36  1  0  0  0
  8  9  1  0  0  0
  8 37  1  0  0  0
  8 38  1  0  0  0
  9 39  1  0  0  0
  9 40  1  0  0  0
  9 41  1  0  0  0
 10 11  1  0  0  0
 10 42  1  0  0  0
 10 43  1  0  0  0
 11 12  1  0  0  0
 11 19  1  0  0  0
 11 44  1  0  0  0
 12 13  2  0  0  0
 12 14  1  0  0  0
 14 15  1  0  0  0
 14 45  1  0  0  0
 15 16  1  0  0  0
 15 46  1  0  0  0
 15 47  1  0  0  0
 16 17  1  0  0  0
 16 48  1  0  0  0
 16 49  1  0  0  0
 17 18  1  0  0  0
 17 50  1  0  0  0
 17 51  1  0  0  0
 18 52  1  0  0  0
 18 53  1  0  0  0
 18 54  1  0  0  0
 19 20  1  0  0  0
 19 55  1  0  0  0
 19 56  1  0  0  0
 20 21  1  0  0  0
 20 57  1  0  0  0
 20 58  1  0  0  0
 21 22  2  0  0  0
 21 23  1  0  0  0
 23 24  1  0  0  0
 23 59  1  0  0  0
 24 25  1  0  0  0
 24 60  1  0  0  0
 24 61  1  0  0  0
 25 26  1  0  0  0
 25 62  1  0  0  0
 25 63  1  0  0  0
 26 27  1  0  0  0
 26 64  1  0  0  0
 26 65  1  0  0  0
 27 66  1  0  0  0
 27 67  1  0  0  0
 27 68  1  0  0  0
M  END
