C:\Mis documentos\Gara\Polímeros (Tg)\Base de datos polímeros\065 trimer poly(vinyl trifluoroacetate).hin
 OpenBabel04231222103D

 38 37  0  0  0  0  0  0  0  0999 V2000
   -2.7012   -4.7024   -1.1474 C   0  0  0  0  0
   -2.8548   -3.2102   -0.9334 C   0  0  0  0  0
   -3.9603   -2.9737   -0.0199 O   0  0  0  0  0
   -5.2108   -3.0146   -0.5351 C   0  0  0  0  0
   -5.4282   -3.2151   -1.7223 O   0  0  0  0  0
   -6.2859   -2.7896    0.5685 C   0  0  0  0  0
   -7.3971   -2.1460    0.0996 F   0  0  0  0  0
   -6.7362   -3.9669    1.1037 F   0  0  0  0  0
   -5.8476   -2.0469    1.6289 F   0  0  0  0  0
   -1.6345   -2.6133   -0.2432 C   0  0  0  0  0
   -1.4825   -1.1142   -0.4846 C   0  0  0  0  0
   -1.7525   -0.4351    0.7695 O   0  0  0  0  0
   -2.9284    0.2214    0.9058 C   0  0  0  0  0
   -3.7562    0.2915    0.0082 O   0  0  0  0  0
   -3.0429    0.8639    2.3205 C   0  0  0  0  0
   -2.1209    1.8539    2.5279 F   0  0  0  0  0
   -4.2620    1.4410    2.5401 F   0  0  0  0  0
   -2.8648   -0.0314    3.3380 F   0  0  0  0  0
   -0.0448   -0.7583   -0.8467 C   0  0  0  0  0
    0.0709    0.7071   -1.2192 C   0  0  0  0  0
    1.4702    0.9158   -1.5115 O   0  0  0  0  0
    1.8382    2.1881   -1.7947 C   0  0  0  0  0
    1.0316    3.1070   -1.8179 O   0  0  0  0  0
    3.3658    2.2832   -2.0740 C   0  0  0  0  0
    3.7824    3.5650   -2.3029 F   0  0  0  0  0
    4.1328    1.8246   -1.0384 F   0  0  0  0  0
    3.7550    1.5661   -3.1724 F   0  0  0  0  0
   -1.8604   -4.8966   -1.8550 H   0  0  0  0  0
   -2.4915   -5.2190   -0.1805 H   0  0  0  0  0
   -3.6424   -5.1197   -1.5820 H   0  0  0  0  0
   -3.0794   -2.6939   -1.9081 H   0  0  0  0  0
   -0.7260   -3.1499   -0.6245 H   0  0  0  0  0
   -1.7026   -2.8056    0.8623 H   0  0  0  0  0
   -2.1945   -0.7470   -1.2750 H   0  0  0  0  0
    0.2798   -1.3936   -1.7117 H   0  0  0  0  0
    0.6321   -0.9797    0.0199 H   0  0  0  0  0
   -0.5244    0.9635   -2.1336 H   0  0  0  0  0
   -0.2278    1.3773   -0.3713 H   0  0  0  0  0
  1  2  1  0  0  0
  1 28  1  0  0  0
  1 29  1  0  0  0
  1 30  1  0  0  0
  2  3  1  0  0  0
  2 10  1  0  0  0
  2 31  1  0  0  0
  3  4  1  0  0  0
  4  5  2  0  0  0
  4  6  1  0  0  0
  6  7  1  0  0  0
  6  8  1  0  0  0
  6  9  1  0  0  0
 10 11  1  0  0  0
 10 32  1  0  0  0
 10 33  1  0  0  0
 11 12  1  0  0  0
 11 19  1  0  0  0
 11 34  1  0  0  0
 12 13  1  0  0  0
 13 14  2  0  0  0
 13 15  1  0  0  0
 15 16  1  0  0  0
 15 17  1  0  0  0
 15 18  1  0  0  0
 19 20  1  0  0  0
 19 35  1  0  0  0
 19 36  1  0  0  0
 20 21  1  0  0  0
 20 37  1  0  0  0
 20 38  1  0  0  0
 21 22  1  0  0  0
 22 23  2  0  0  0
 22 24  1  0  0  0
 24 25  1  0  0  0
 24 26  1  0  0  0
 24 27  1  0  0  0
M  END
