C:\Mis documentos\Gara\Polímeros (Tg)\Base de datos polímeros\066 trimer poly(3-methyl-1-butene).hin
 OpenBabel04231222103D

 47 46  0  0  0  0  0  0  0  0999 V2000
   -1.5480   -2.4869    1.2930 C   0  0  0  0  0
   -1.0014   -1.3049    0.5164 C   0  0  0  0  0
    0.4828   -1.4992    0.1894 C   0  0  0  0  0
    1.0631   -0.2555   -0.4549 C   0  0  0  0  0
    1.2839   -1.8466    1.4285 C   0  0  0  0  0
   -1.8269   -1.0887   -0.7525 C   0  0  0  0  0
   -2.3032    0.3532   -0.9018 C   0  0  0  0  0
   -2.8720    0.6011   -2.3039 C   0  0  0  0  0
   -3.3454    2.0342   -2.4577 C   0  0  0  0  0
   -1.8539    0.2986   -3.3874 C   0  0  0  0  0
   -3.3361    0.6736    0.1783 C   0  0  0  0  0
   -3.0534    1.9960    0.8618 C   0  0  0  0  0
   -4.1680    2.3993    1.8173 C   0  0  0  0  0
   -3.6562    3.4122    2.8214 C   0  0  0  0  0
   -5.3557    2.9657    1.0670 C   0  0  0  0  0
   -2.6489   -2.3722    1.4472 H   0  0  0  0  0
   -1.3638   -3.4397    0.7415 H   0  0  0  0  0
   -1.0646   -2.5570    2.2972 H   0  0  0  0  0
   -1.0866   -0.3902    1.1709 H   0  0  0  0  0
    0.5725   -2.3543   -0.5393 H   0  0  0  0  0
    2.1434   -0.4118   -0.6914 H   0  0  0  0  0
    0.5261   -0.0130   -1.4041 H   0  0  0  0  0
    0.9746    0.6191    0.2338 H   0  0  0  0  0
    2.3774   -1.8175    1.2015 H   0  0  0  0  0
    1.0742   -1.1197    2.2495 H   0  0  0  0  0
    1.0306   -2.8730    1.7877 H   0  0  0  0  0
   -2.7244   -1.7626   -0.7489 H   0  0  0  0  0
   -1.2125   -1.3790   -1.6445 H   0  0  0  0  0
   -1.4105    1.0293   -0.7697 H   0  0  0  0  0
   -3.7561   -0.0827   -2.4463 H   0  0  0  0  0
   -3.7503    2.1971   -3.4860 H   0  0  0  0  0
   -4.1530    2.2720   -1.7233 H   0  0  0  0  0
   -2.4987    2.7440   -2.2948 H   0  0  0  0  0
   -2.1816    0.7394   -4.3605 H   0  0  0  0  0
   -0.8575    0.7287   -3.1242 H   0  0  0  0  0
   -1.7396   -0.8023   -3.5335 H   0  0  0  0  0
   -3.3384   -0.1373    0.9564 H   0  0  0  0  0
   -4.3652    0.6845   -0.2676 H   0  0  0  0  0
   -2.0898    1.9097    1.4319 H   0  0  0  0  0
   -2.9120    2.8015    0.0935 H   0  0  0  0  0
   -4.5055    1.4824    2.3791 H   0  0  0  0  0
   -4.4776    3.7236    3.5106 H   0  0  0  0  0
   -2.8286    2.9756    3.4304 H   0  0  0  0  0
   -3.2698    4.3201    2.2987 H   0  0  0  0  0
   -6.1773    3.2202    1.7791 H   0  0  0  0  0
   -5.0656    3.8930    0.5161 H   0  0  0  0  0
   -5.7439    2.2248    0.3273 H   0  0  0  0  0
  1  2  1  0  0  0
  1 16  1  0  0  0
  1 17  1  0  0  0
  1 18  1  0  0  0
  2  3  1  0  0  0
  2  6  1  0  0  0
  2 19  1  0  0  0
  3  4  1  0  0  0
  3  5  1  0  0  0
  3 20  1  0  0  0
  4 21  1  0  0  0
  4 22  1  0  0  0
  4 23  1  0  0  0
  5 24  1  0  0  0
  5 25  1  0  0  0
  5 26  1  0  0  0
  6  7  1  0  0  0
  6 27  1  0  0  0
  6 28  1  0  0  0
  7  8  1  0  0  0
  7 11  1  0  0  0
  7 29  1  0  0  0
  8  9  1  0  0  0
  8 10  1  0  0  0
  8 30  1  0  0  0
  9 31  1  0  0  0
  9 32  1  0  0  0
  9 33  1  0  0  0
 10 34  1  0  0  0
 10 35  1  0  0  0
 10 36  1  0  0  0
 11 12  1  0  0  0
 11 37  1  0  0  0
 11 38  1  0  0  0
 12 13  1  0  0  0
 12 39  1  0  0  0
 12 40  1  0  0  0
 13 14  1  0  0  0
 13 15  1  0  0  0
 13 41  1  0  0  0
 14 42  1  0  0  0
 14 43  1  0  0  0
 14 44  1  0  0  0
 15 45  1  0  0  0
 15 46  1  0  0  0
 15 47  1  0  0  0
M  END
