C:\Mis documentos\Gara\Polímeros (Tg)\Base de datos polímeros\067 trimer poly(n-butyl a-chloroacrylate).hin
 OpenBabel04231222113D

 65 64  0  0  0  0  0  0  0  0999 V2000
   -4.2431   -2.9772   -1.6118 C   0  0  0  0  0
   -3.7896   -1.5270   -1.4297 C   0  0  0  0  0
   -4.1629   -0.6717   -2.9383 Cl  0  0  0  0  0
   -4.5333   -0.9813   -0.2245 C   0  0  0  0  0
   -5.2927    0.1254   -0.4185 O   0  0  0  0  0
   -5.8906    0.7022    0.7639 C   0  0  0  0  0
   -6.7338    1.8622    0.2721 C   0  0  0  0  0
   -7.4237    2.5333    1.4404 C   0  0  0  0  0
   -8.2839    3.6817    0.9802 C   0  0  0  0  0
   -4.5102   -1.4960    0.8998 O   0  0  0  0  0
   -2.2774   -1.5302   -1.1845 C   0  0  0  0  0
   -1.5840   -0.2744   -0.6329 C   0  0  0  0  0
   -2.0262    1.1647   -1.5577 Cl  0  0  0  0  0
   -1.9648   -0.0922    0.8293 C   0  0  0  0  0
   -2.5693    0.8337    1.3686 O   0  0  0  0  0
   -1.5650   -1.1533    1.5900 O   0  0  0  0  0
   -1.9938   -1.1483    2.9675 C   0  0  0  0  0
   -1.2763   -2.3090    3.6288 C   0  0  0  0  0
   -1.6427   -2.3783    5.0958 C   0  0  0  0  0
   -0.9316   -3.5154    5.7829 C   0  0  0  0  0
   -0.0728   -0.5165   -0.7523 C   0  0  0  0  0
    0.8164    0.6720   -0.4319 C   0  0  0  0  0
    0.8903    1.0226    1.2910 Cl  0  0  0  0  0
    2.2211    0.3777   -0.9055 C   0  0  0  0  0
    2.7668   -0.7200   -1.0196 O   0  0  0  0  0
    2.8980    1.5079   -1.2545 O   0  0  0  0  0
    4.2673    1.3672   -1.6656 C   0  0  0  0  0
    5.1746    1.2087   -0.4617 C   0  0  0  0  0
    6.6261    1.1852   -0.8876 C   0  0  0  0  0
    7.5412    1.0146    0.2975 C   0  0  0  0  0
   -4.1009   -3.5379   -0.6548 H   0  0  0  0  0
   -5.3237   -3.0138   -1.8903 H   0  0  0  0  0
   -3.6455   -3.4676   -2.4168 H   0  0  0  0  0
   -6.5095   -0.0792    1.2762 H   0  0  0  0  0
   -5.0621    1.0363    1.4436 H   0  0  0  0  0
   -6.0801    2.5971   -0.2664 H   0  0  0  0  0
   -7.4924    1.4897   -0.4645 H   0  0  0  0  0
   -8.0564    1.7828    1.9846 H   0  0  0  0  0
   -6.6530    2.9055    2.1664 H   0  0  0  0  0
   -8.7834    4.1649    1.8543 H   0  0  0  0  0
   -7.6668    4.4511    0.4561 H   0  0  0  0  0
   -9.0731    3.3259    0.2745 H   0  0  0  0  0
   -1.7855   -1.8016   -2.1588 H   0  0  0  0  0
   -2.0628   -2.3565   -0.4465 H   0  0  0  0  0
   -1.7187   -0.1671    3.4343 H   0  0  0  0  0
   -3.1088   -1.2752    2.9780 H   0  0  0  0  0
   -1.5570   -3.2650    3.1150 H   0  0  0  0  0
   -0.1685   -2.1810    3.5125 H   0  0  0  0  0
   -1.3752   -1.4095    5.5954 H   0  0  0  0  0
   -2.7526   -2.5087    5.1988 H   0  0  0  0  0
   -1.2139   -3.5514    6.8628 H   0  0  0  0  0
   -1.2036   -4.4918    5.3139 H   0  0  0  0  0
    0.1758   -3.3890    5.7113 H   0  0  0  0  0
    0.1537   -0.8263   -1.8107 H   0  0  0  0  0
    0.1986   -1.3794   -0.0824 H   0  0  0  0  0
    0.4458    1.6138   -0.9202 H   0  0  0  0  0
    4.3669    0.4973   -2.3654 H   0  0  0  0  0
    4.4612    2.3320   -2.2071 H   0  0  0  0  0
    4.9973    2.0524    0.2553 H   0  0  0  0  0
    4.9138    0.2549    0.0696 H   0  0  0  0  0
    6.7895    0.3449   -1.6134 H   0  0  0  0  0
    6.8760    2.1395   -1.4228 H   0  0  0  0  0
    8.6069    0.9995   -0.0358 H   0  0  0  0  0
    7.4093    1.8543    1.0221 H   0  0  0  0  0
    7.3234    0.0564    0.8286 H   0  0  0  0  0
  1  2  1  0  0  0
  1 31  1  0  0  0
  1 32  1  0  0  0
  1 33  1  0  0  0
  2  3  1  0  0  0
  2  4  1  0  0  0
  2 11  1  0  0  0
  4  5  1  0  0  0
  4 10  2  0  0  0
  5  6  1  0  0  0
  6  7  1  0  0  0
  6 34  1  0  0  0
  6 35  1  0  0  0
  7  8  1  0  0  0
  7 36  1  0  0  0
  7 37  1  0  0  0
  8  9  1  0  0  0
  8 38  1  0  0  0
  8 39  1  0  0  0
  9 40  1  0  0  0
  9 41  1  0  0  0
  9 42  1  0  0  0
 11 12  1  0  0  0
 11 43  1  0  0  0
 11 44  1  0  0  0
 12 13  1  0  0  0
 12 14  1  0  0  0
 12 21  1  0  0  0
 14 15  2  0  0  0
 14 16  1  0  0  0
 16 17  1  0  0  0
 17 18  1  0  0  0
 17 45  1  0  0  0
 17 46  1  0  0  0
 18 19  1  0  0  0
 18 47  1  0  0  0
 18 48  1  0  0  0
 19 20  1  0  0  0
 19 49  1  0  0  0
 19 50  1  0  0  0
 20 51  1  0  0  0
 20 52  1  0  0  0
 20 53  1  0  0  0
 21 22  1  0  0  0
 21 54  1  0  0  0
 21 55  1  0  0  0
 22 23  1  0  0  0
 22 24  1  0  0  0
 22 56  1  0  0  0
 24 25  2  0  0  0
 24 26  1  0  0  0
 26 27  1  0  0  0
 27 28  1  0  0  0
 27 57  1  0  0  0
 27 58  1  0  0  0
 28 29  1  0  0  0
 28 59  1  0  0  0
 28 60  1  0  0  0
 29 30  1  0  0  0
 29 61  1  0  0  0
 29 62  1  0  0  0
 30 63  1  0  0  0
 30 64  1  0  0  0
 30 65  1  0  0  0
M  END
