C:\Mis documentos\Gara\Polímeros (Tg)\Base de datos polímeros\068 trimer poly(sec-butyl methacrylate).hin
 OpenBabel04231222113D

 74 73  0  0  0  0  0  0  0  0999 V2000
   -2.1016   -4.1600   -0.6138 C   0  0  0  0  0
   -2.3276   -2.7190   -0.1385 C   0  0  0  0  0
   -3.5524   -2.1705   -0.8432 C   0  0  0  0  0
   -2.5425   -2.8133    1.3651 C   0  0  0  0  0
   -1.7362   -3.2387    2.1957 O   0  0  0  0  0
   -3.7836   -2.4322    1.7825 O   0  0  0  0  0
   -4.0884   -2.5525    3.1935 C   0  0  0  0  0
   -3.5428   -1.3357    3.9286 C   0  0  0  0  0
   -3.6356   -1.4933    5.4225 C   0  0  0  0  0
   -5.6007   -2.6514    3.2557 C   0  0  0  0  0
   -1.0370   -1.9383   -0.4144 C   0  0  0  0  0
   -1.0385   -0.4033   -0.4904 C   0  0  0  0  0
   -1.4578    0.0655   -1.8754 C   0  0  0  0  0
   -1.9049    0.2102    0.5914 C   0  0  0  0  0
   -1.7507    0.1169    1.8117 O   0  0  0  0  0
   -2.9227    0.9839    0.1131 O   0  0  0  0  0
   -3.8373    1.5846    1.0597 C   0  0  0  0  0
   -4.0910    2.9980    0.5439 C   0  0  0  0  0
   -4.6659    3.8790    1.6218 C   0  0  0  0  0
   -5.0938    0.7377    1.0907 C   0  0  0  0  0
    0.4105    0.0479   -0.2145 C   0  0  0  0  0
    0.6224    1.5532   -0.2886 C   0  0  0  0  0
    1.8031    1.9697    0.5689 C   0  0  0  0  0
    0.8845    1.9902   -1.7116 C   0  0  0  0  0
    1.5658    1.4252   -2.5691 O   0  0  0  0  0
    0.2667    3.1719   -2.0001 O   0  0  0  0  0
    0.3848    3.7576   -3.3099 C   0  0  0  0  0
    1.8333    4.0881   -3.6424 C   0  0  0  0  0
    1.9282    5.1971   -4.6569 C   0  0  0  0  0
   -0.2771    2.8874   -4.3573 C   0  0  0  0  0
   -1.2075   -4.5963   -0.1067 H   0  0  0  0  0
   -2.9938   -4.7860   -0.3734 H   0  0  0  0  0
   -1.9415   -4.1743   -1.7179 H   0  0  0  0  0
   -3.7767   -1.1292   -0.5018 H   0  0  0  0  0
   -3.3908   -2.1757   -1.9478 H   0  0  0  0  0
   -4.4404   -2.8077   -0.6090 H   0  0  0  0  0
   -3.6090   -3.4901    3.5908 H   0  0  0  0  0
   -2.4686   -1.1949    3.6242 H   0  0  0  0  0
   -4.0987   -0.4197    3.5962 H   0  0  0  0  0
   -3.1746   -0.6096    5.9269 H   0  0  0  0  0
   -4.6995   -1.5708    5.7538 H   0  0  0  0  0
   -3.0943   -2.4111    5.7580 H   0  0  0  0  0
   -5.9165   -2.7625    4.3201 H   0  0  0  0  0
   -6.0699   -1.7330    2.8280 H   0  0  0  0  0
   -5.9552   -3.5345    2.6730 H   0  0  0  0  0
   -0.6316   -2.2970   -1.4009 H   0  0  0  0  0
   -0.3026   -2.2493    0.3821 H   0  0  0  0  0
   -1.4576    1.1838   -1.9218 H   0  0  0  0  0
   -0.7411   -0.3224   -2.6398 H   0  0  0  0  0
   -2.4869   -0.2852   -2.1221 H   0  0  0  0  0
   -3.3644    1.6202    2.0808 H   0  0  0  0  0
   -3.1218    3.4283    0.1761 H   0  0  0  0  0
   -4.7878    2.9534   -0.3329 H   0  0  0  0  0
   -4.8458    4.9055    1.2198 H   0  0  0  0  0
   -5.6370    3.4708    1.9935 H   0  0  0  0  0
   -3.9639    3.9575    2.4872 H   0  0  0  0  0
   -5.8398    1.2022    1.7780 H   0  0  0  0  0
   -5.5380    0.6581    0.0698 H   0  0  0  0  0
   -4.8505   -0.2932    1.4538 H   0  0  0  0  0
    1.0871   -0.4616   -0.9510 H   0  0  0  0  0
    0.6914   -0.2974    0.8179 H   0  0  0  0  0
   -0.3027    2.0840    0.0797 H   0  0  0  0  0
    1.9712    3.0703    0.4836 H   0  0  0  0  0
    1.6002    1.7201    1.6384 H   0  0  0  0  0
    2.7295    1.4373    0.2446 H   0  0  0  0  0
   -0.2052    4.7126   -3.1705 H   0  0  0  0  0
    2.3573    4.3920   -2.6977 H   0  0  0  0  0
    2.3462    3.1658   -4.0248 H   0  0  0  0  0
    2.9996    5.4148   -4.8854 H   0  0  0  0  0
    1.4169    4.9097   -5.6077 H   0  0  0  0  0
    1.4535    6.1320   -4.2714 H   0  0  0  0  0
   -0.3443    3.4488   -5.3194 H   0  0  0  0  0
    0.3128    1.9531   -4.5221 H   0  0  0  0  0
   -1.3056    2.6057   -4.0258 H   0  0  0  0  0
  1  2  1  0  0  0
  1 31  1  0  0  0
  1 32  1  0  0  0
  1 33  1  0  0  0
  2  3  1  0  0  0
  2  4  1  0  0  0
  2 11  1  0  0  0
  3 34  1  0  0  0
  3 35  1  0  0  0
  3 36  1  0  0  0
  4  5  2  0  0  0
  4  6  1  0  0  0
  6  7  1  0  0  0
  7  8  1  0  0  0
  7 10  1  0  0  0
  7 37  1  0  0  0
  8  9  1  0  0  0
  8 38  1  0  0  0
  8 39  1  0  0  0
  9 40  1  0  0  0
  9 41  1  0  0  0
  9 42  1  0  0  0
 10 43  1  0  0  0
 10 44  1  0  0  0
 10 45  1  0  0  0
 11 12  1  0  0  0
 11 46  1  0  0  0
 11 47  1  0  0  0
 12 13  1  0  0  0
 12 14  1  0  0  0
 12 21  1  0  0  0
 13 48  1  0  0  0
 13 49  1  0  0  0
 13 50  1  0  0  0
 14 15  2  0  0  0
 14 16  1  0  0  0
 16 17  1  0  0  0
 17 18  1  0  0  0
 17 20  1  0  0  0
 17 51  1  0  0  0
 18 19  1  0  0  0
 18 52  1  0  0  0
 18 53  1  0  0  0
 19 54  1  0  0  0
 19 55  1  0  0  0
 19 56  1  0  0  0
 20 57  1  0  0  0
 20 58  1  0  0  0
 20 59  1  0  0  0
 21 22  1  0  0  0
 21 60  1  0  0  0
 21 61  1  0  0  0
 22 23  1  0  0  0
 22 24  1  0  0  0
 22 62  1  0  0  0
 23 63  1  0  0  0
 23 64  1  0  0  0
 23 65  1  0  0  0
 24 25  2  0  0  0
 24 26  1  0  0  0
 26 27  1  0  0  0
 27 28  1  0  0  0
 27 30  1  0  0  0
 27 66  1  0  0  0
 28 29  1  0  0  0
 28 67  1  0  0  0
 28 68  1  0  0  0
 29 69  1  0  0  0
 29 70  1  0  0  0
 29 71  1  0  0  0
 30 72  1  0  0  0
 30 73  1  0  0  0
 30 74  1  0  0  0
M  END
