C:\Mis documentos\Gara\Polímeros (Tg)\Base de datos polímeros\069 trimer poly(heptafluoropropyl ethylene).hin
 OpenBabel04231222113D

 47 46  0  0  0  0  0  0  0  0999 V2000
   -1.2638   -4.2711    1.4575 C   0  0  0  0  0
   -0.7240   -3.0852    0.6834 C   0  0  0  0  0
    0.8114   -3.2672    0.4624 C   0  0  0  0  0
    1.4868   -1.8925   -0.0514 C   0  0  0  0  0
    3.0869   -1.9310    0.1760 C   0  0  0  0  0
    1.4525   -3.6665    1.6128 F   0  0  0  0  0
    1.1173   -4.2735   -0.4218 F   0  0  0  0  0
    1.2140   -1.6650   -1.3735 F   0  0  0  0  0
    0.9619   -0.7970    0.5836 F   0  0  0  0  0
    3.7207   -0.9221   -0.4905 F   0  0  0  0  0
    3.4292   -1.7942    1.4893 F   0  0  0  0  0
    3.6557   -3.0915   -0.2584 F   0  0  0  0  0
   -1.4696   -2.9216   -0.6340 C   0  0  0  0  0
   -1.9837   -1.5019   -0.8461 C   0  0  0  0  0
   -2.5971   -1.3919   -2.2791 C   0  0  0  0  0
   -2.8607    0.1521   -2.6741 C   0  0  0  0  0
   -3.0313    0.2979   -4.2757 C   0  0  0  0  0
   -1.7867   -1.9577   -3.2363 F   0  0  0  0  0
   -3.7687   -2.0975   -2.4178 F   0  0  0  0  0
   -3.9716    0.6474   -2.0458 F   0  0  0  0  0
   -1.8493    0.9699   -2.2456 F   0  0  0  0  0
   -3.5312    1.5193   -4.6249 F   0  0  0  0  0
   -1.8476    0.1655   -4.9399 F   0  0  0  0  0
   -3.8826   -0.6275   -4.8033 F   0  0  0  0  0
   -2.9980   -1.1080    0.2186 C   0  0  0  0  0
   -2.5978    0.1752    0.9138 C   0  0  0  0  0
   -3.5706    0.5194    2.0641 C   0  0  0  0  0
   -3.0866    1.9040    2.7314 C   0  0  0  0  0
   -4.0747    2.3393    3.9308 C   0  0  0  0  0
   -4.8770    0.6312    1.6538 F   0  0  0  0  0
   -3.6315   -0.4610    3.0268 F   0  0  0  0  0
   -1.8036    1.7993    3.1993 F   0  0  0  0  0
   -3.0181    2.9038    1.7984 F   0  0  0  0  0
   -3.6698    3.4953    4.5342 F   0  0  0  0  0
   -5.3524    2.5590    3.5066 F   0  0  0  0  0
   -4.1486    1.4012    4.9186 F   0  0  0  0  0
   -2.3552   -4.1322    1.6501 H   0  0  0  0  0
   -1.1145   -5.2139    0.8773 H   0  0  0  0  0
   -0.7381   -4.3693    2.4386 H   0  0  0  0  0
   -0.8360   -2.1597    1.3164 H   0  0  0  0  0
   -2.3437   -3.6265   -0.6690 H   0  0  0  0  0
   -0.7939   -3.1975   -1.4901 H   0  0  0  0  0
   -1.1000   -0.8000   -0.8291 H   0  0  0  0  0
   -3.0913   -1.9278    0.9825 H   0  0  0  0  0
   -4.0183   -0.9785   -0.2362 H   0  0  0  0  0
   -1.5672    0.0887    1.3494 H   0  0  0  0  0
   -2.6083    1.0286    0.1835 H   0  0  0  0  0
  1  2  1  0  0  0
  1 37  1  0  0  0
  1 38  1  0  0  0
  1 39  1  0  0  0
  2  3  1  0  0  0
  2 13  1  0  0  0
  2 40  1  0  0  0
  3  4  1  0  0  0
  3  6  1  0  0  0
  3  7  1  0  0  0
  4  5  1  0  0  0
  4  8  1  0  0  0
  4  9  1  0  0  0
  5 10  1  0  0  0
  5 11  1  0  0  0
  5 12  1  0  0  0
 13 14  1  0  0  0
 13 41  1  0  0  0
 13 42  1  0  0  0
 14 15  1  0  0  0
 14 25  1  0  0  0
 14 43  1  0  0  0
 15 16  1  0  0  0
 15 18  1  0  0  0
 15 19  1  0  0  0
 16 17  1  0  0  0
 16 20  1  0  0  0
 16 21  1  0  0  0
 17 22  1  0  0  0
 17 23  1  0  0  0
 17 24  1  0  0  0
 25 26  1  0  0  0
 25 44  1  0  0  0
 25 45  1  0  0  0
 26 27  1  0  0  0
 26 46  1  0  0  0
 26 47  1  0  0  0
 27 28  1  0  0  0
 27 30  1  0  0  0
 27 31  1  0  0  0
 28 29  1  0  0  0
 28 32  1  0  0  0
 28 33  1  0  0  0
 29 34  1  0  0  0
 29 35  1  0  0  0
 29 36  1  0  0  0
M  END
