C:\Mis documentos\Gara\Polímeros (Tg)\Base de datos polímeros\070 trimer  poly(3-pentyl acrylate).hin
 OpenBabel04231222123D

 74 73  0  0  0  0  0  0  0  0999 V2000
   -2.2690   -4.4954   -1.4277 C   0  0  0  0  0
   -2.2985   -3.1351   -0.7589 C   0  0  0  0  0
   -3.0739   -3.2467    0.5336 C   0  0  0  0  0
   -2.8745   -4.0106    1.4789 O   0  0  0  0  0
   -4.1199   -2.3720    0.5845 O   0  0  0  0  0
   -4.9136   -2.3238    1.7938 C   0  0  0  0  0
   -4.2785   -1.3269    2.7603 C   0  0  0  0  0
   -4.2599   -1.8539    4.1716 C   0  0  0  0  0
   -6.3030   -1.9029    1.3224 C   0  0  0  0  0
   -7.3124   -1.9947    2.4357 C   0  0  0  0  0
   -0.8878   -2.6245   -0.4783 C   0  0  0  0  0
   -0.6967   -1.1686   -0.8853 C   0  0  0  0  0
   -1.4626   -0.2633    0.0497 C   0  0  0  0  0
   -1.3590   -0.1717    1.2745 O   0  0  0  0  0
   -2.3570    0.5267   -0.6105 O   0  0  0  0  0
   -3.2132    1.3902    0.1747 C   0  0  0  0  0
   -2.5602    2.7668    0.2697 C   0  0  0  0  0
   -2.5843    3.2985    1.6795 C   0  0  0  0  0
   -4.5463    1.4003   -0.5680 C   0  0  0  0  0
   -5.6266    2.0417    0.2624 C   0  0  0  0  0
    0.7803   -0.7978   -0.8434 C   0  0  0  0  0
    1.0118    0.5774   -1.4336 C   0  0  0  0  0
    2.4730    0.9097   -1.4539 C   0  0  0  0  0
    3.4262    0.1526   -1.6476 O   0  0  0  0  0
    2.7009    2.2394   -1.2496 O   0  0  0  0  0
    4.0683    2.7118   -1.2623 C   0  0  0  0  0
    3.9964    4.0946   -1.9043 C   0  0  0  0  0
    4.5829    2.7403    0.1750 C   0  0  0  0  0
    5.9919    2.2150    0.2732 C   0  0  0  0  0
    5.3703    4.6533   -2.1638 C   0  0  0  0  0
   -1.7052   -4.4350   -2.3894 H   0  0  0  0  0
   -1.7745   -5.2452   -0.7632 H   0  0  0  0  0
   -3.3080   -4.8426   -1.6441 H   0  0  0  0  0
   -2.8388   -2.4078   -1.4307 H   0  0  0  0  0
   -4.9495   -3.3518    2.2509 H   0  0  0  0  0
   -3.2253   -1.1128    2.4263 H   0  0  0  0  0
   -4.8386   -0.3555    2.7213 H   0  0  0  0  0
   -3.8100   -1.0963    4.8576 H   0  0  0  0  0
   -5.2954   -2.0818    4.5241 H   0  0  0  0  0
   -3.6527   -2.7903    4.2310 H   0  0  0  0  0
   -6.2557   -0.8545    0.9236 H   0  0  0  0  0
   -6.6100   -2.5673    0.4719 H   0  0  0  0  0
   -8.3244   -1.7104    2.0583 H   0  0  0  0  0
   -7.3648   -3.0349    2.8396 H   0  0  0  0  0
   -7.0406   -1.3070    3.2736 H   0  0  0  0  0
   -0.1512   -3.2463   -1.0550 H   0  0  0  0  0
   -0.6411   -2.7424    0.6112 H   0  0  0  0  0
   -1.0867   -1.0172   -1.9319 H   0  0  0  0  0
   -3.3495    0.9407    1.1999 H   0  0  0  0  0
   -1.4966    2.6901   -0.0831 H   0  0  0  0  0
   -3.0848    3.4820   -0.4162 H   0  0  0  0  0
   -2.1037    4.3057    1.7191 H   0  0  0  0  0
   -3.6349    3.3929    2.0479 H   0  0  0  0  0
   -2.0301    2.6129    2.3665 H   0  0  0  0  0
   -4.4285    1.9419   -1.5420 H   0  0  0  0  0
   -4.8287    0.3395   -0.8058 H   0  0  0  0  0
   -6.5883    2.0539   -0.3051 H   0  0  0  0  0
   -5.7834    1.4733    1.2122 H   0  0  0  0  0
   -5.3546    3.0938    0.5229 H   0  0  0  0  0
    1.3732   -1.5558   -1.4214 H   0  0  0  0  0
    1.1415   -0.8243    0.2190 H   0  0  0  0  0
    0.6434    0.6186   -2.4942 H   0  0  0  0  0
    0.4508    1.3553   -0.8484 H   0  0  0  0  0
    4.6959    2.0222   -1.8934 H   0  0  0  0  0
    3.4288    4.0119   -2.8688 H   0  0  0  0  0
    3.4162    4.7839   -1.2371 H   0  0  0  0  0
    4.5377    3.7884    0.5707 H   0  0  0  0  0
    3.9052    2.1158    0.8161 H   0  0  0  0  0
    6.3503    2.2725    1.3292 H   0  0  0  0  0
    6.0385    1.1494   -0.0597 H   0  0  0  0  0
    6.6829    2.8144   -0.3687 H   0  0  0  0  0
    5.2891    5.6452   -2.6708 H   0  0  0  0  0
    5.9287    4.7906   -1.2057 H   0  0  0  0  0
    5.9612    3.9682   -2.8190 H   0  0  0  0  0
  1  2  1  0  0  0
  1 31  1  0  0  0
  1 32  1  0  0  0
  1 33  1  0  0  0
  2  3  1  0  0  0
  2 11  1  0  0  0
  2 34  1  0  0  0
  3  4  2  0  0  0
  3  5  1  0  0  0
  5  6  1  0  0  0
  6  7  1  0  0  0
  6  9  1  0  0  0
  6 35  1  0  0  0
  7  8  1  0  0  0
  7 36  1  0  0  0
  7 37  1  0  0  0
  8 38  1  0  0  0
  8 39  1  0  0  0
  8 40  1  0  0  0
  9 10  1  0  0  0
  9 41  1  0  0  0
  9 42  1  0  0  0
 10 43  1  0  0  0
 10 44  1  0  0  0
 10 45  1  0  0  0
 11 12  1  0  0  0
 11 46  1  0  0  0
 11 47  1  0  0  0
 12 13  1  0  0  0
 12 21  1  0  0  0
 12 48  1  0  0  0
 13 14  2  0  0  0
 13 15  1  0  0  0
 15 16  1  0  0  0
 16 17  1  0  0  0
 16 19  1  0  0  0
 16 49  1  0  0  0
 17 18  1  0  0  0
 17 50  1  0  0  0
 17 51  1  0  0  0
 18 52  1  0  0  0
 18 53  1  0  0  0
 18 54  1  0  0  0
 19 20  1  0  0  0
 19 55  1  0  0  0
 19 56  1  0  0  0
 20 57  1  0  0  0
 20 58  1  0  0  0
 20 59  1  0  0  0
 21 22  1  0  0  0
 21 60  1  0  0  0
 21 61  1  0  0  0
 22 23  1  0  0  0
 22 62  1  0  0  0
 22 63  1  0  0  0
 23 24  2  0  0  0
 23 25  1  0  0  0
 25 26  1  0  0  0
 26 27  1  0  0  0
 26 28  1  0  0  0
 26 64  1  0  0  0
 27 30  1  0  0  0
 27 65  1  0  0  0
 27 66  1  0  0  0
 28 29  1  0  0  0
 28 67  1  0  0  0
 28 68  1  0  0  0
 29 69  1  0  0  0
 29 70  1  0  0  0
 29 71  1  0  0  0
 30 72  1  0  0  0
 30 73  1  0  0  0
 30 74  1  0  0  0
M  END
