C:\Mis documentos\Gara\Polímeros (Tg)\Base de datos polímeros\071 trimer poly(5-methyl-1-hexene).hin
 OpenBabel04231222123D

 65 64  0  0  0  0  0  0  0  0999 V2000
   -2.8117   -3.0230   -1.1833 C   0  0  0  0  0
   -2.8522   -1.6686   -0.5049 C   0  0  0  0  0
   -4.2762   -1.3105   -0.0975 C   0  0  0  0  0
   -5.0707   -0.7397   -1.2534 C   0  0  0  0  0
   -6.5176   -0.4596   -0.8704 C   0  0  0  0  0
   -7.1216    0.5614   -1.8130 C   0  0  0  0  0
   -7.3436   -1.7290   -0.8786 C   0  0  0  0  0
   -1.9271   -1.6647    0.7068 C   0  0  0  0  0
   -1.4273   -0.2664    1.0539 C   0  0  0  0  0
   -0.8652   -0.2638    2.4704 C   0  0  0  0  0
   -0.6297    1.1407    2.9844 C   0  0  0  0  0
   -0.0846    1.1490    4.4059 C   0  0  0  0  0
    0.5728    2.4811    4.7053 C   0  0  0  0  0
   -1.1765    0.8691    5.4174 C   0  0  0  0  0
   -0.3912    0.2120    0.0397 C   0  0  0  0  0
   -0.7905    1.5228   -0.6067 C   0  0  0  0  0
    0.2491    1.9796   -1.6085 C   0  0  0  0  0
   -0.1969    3.2361   -2.3253 C   0  0  0  0  0
    0.8309    3.7170   -3.3401 C   0  0  0  0  0
    0.1765    4.6339   -4.3535 C   0  0  0  0  0
    1.9836    4.4277   -2.6620 C   0  0  0  0  0
   -1.7858   -3.2324   -1.5715 H   0  0  0  0  0
   -3.0890   -3.8308   -0.4639 H   0  0  0  0  0
   -3.5271   -3.0516   -2.0401 H   0  0  0  0  0
   -2.4840   -0.8939   -1.2371 H   0  0  0  0  0
   -4.7890   -2.2235    0.3047 H   0  0  0  0  0
   -4.2485   -0.5555    0.7329 H   0  0  0  0  0
   -4.5865    0.2152   -1.5919 H   0  0  0  0  0
   -5.0455   -1.4488   -2.1220 H   0  0  0  0  0
   -6.5345   -0.0313    0.1722 H   0  0  0  0  0
   -8.1908    0.7466   -1.5501 H   0  0  0  0  0
   -6.5681    1.5290   -1.7482 H   0  0  0  0  0
   -7.0744    0.1967   -2.8672 H   0  0  0  0  0
   -8.3910   -1.5110   -0.5587 H   0  0  0  0  0
   -7.3728   -2.1714   -1.9036 H   0  0  0  0  0
   -6.9095   -2.4841   -0.1802 H   0  0  0  0  0
   -1.0451   -2.3296    0.5100 H   0  0  0  0  0
   -2.4755   -2.0974    1.5849 H   0  0  0  0  0
   -2.3108    0.4340    1.0332 H   0  0  0  0  0
   -1.5858   -0.7887    3.1527 H   0  0  0  0  0
    0.0945   -0.8438    2.4938 H   0  0  0  0  0
    0.0964    1.6641    2.3063 H   0  0  0  0  0
   -1.5889    1.7216    2.9500 H   0  0  0  0  0
    0.6967    0.3412    4.4931 H   0  0  0  0  0
    0.9551    2.4975    5.7543 H   0  0  0  0  0
    1.4303    2.6586    4.0126 H   0  0  0  0  0
   -0.1596    3.3149    4.5826 H   0  0  0  0  0
   -0.7525    0.8574    6.4505 H   0  0  0  0  0
   -1.9669    1.6566    5.3697 H   0  0  0  0  0
   -1.6518   -0.1213    5.2189 H   0  0  0  0  0
   -0.2539   -0.5609   -0.7631 H   0  0  0  0  0
    0.6069    0.3363    0.5376 H   0  0  0  0  0
   -1.7804    1.4002   -1.1218 H   0  0  0  0  0
   -0.9224    2.3072    0.1849 H   0  0  0  0  0
    1.2213    2.1666   -1.0809 H   0  0  0  0  0
    0.4316    1.1644   -2.3579 H   0  0  0  0  0
   -1.1667    3.0307   -2.8524 H   0  0  0  0  0
   -0.3926    4.0486   -1.5773 H   0  0  0  0  0
    1.2388    2.8197   -3.8869 H   0  0  0  0  0
    0.9331    5.0042   -5.0863 H   0  0  0  0  0
   -0.6228    4.0911   -4.9131 H   0  0  0  0  0
   -0.2839    5.5147   -3.8446 H   0  0  0  0  0
    2.7434    4.7404   -3.4184 H   0  0  0  0  0
    1.6228    5.3392   -2.1272 H   0  0  0  0  0
    2.4776    3.7551   -1.9206 H   0  0  0  0  0
  1  2  1  0  0  0
  1 22  1  0  0  0
  1 23  1  0  0  0
  1 24  1  0  0  0
  2  3  1  0  0  0
  2  8  1  0  0  0
  2 25  1  0  0  0
  3  4  1  0  0  0
  3 26  1  0  0  0
  3 27  1  0  0  0
  4  5  1  0  0  0
  4 28  1  0  0  0
  4 29  1  0  0  0
  5  6  1  0  0  0
  5  7  1  0  0  0
  5 30  1  0  0  0
  6 31  1  0  0  0
  6 32  1  0  0  0
  6 33  1  0  0  0
  7 34  1  0  0  0
  7 35  1  0  0  0
  7 36  1  0  0  0
  8  9  1  0  0  0
  8 37  1  0  0  0
  8 38  1  0  0  0
  9 10  1  0  0  0
  9 15  1  0  0  0
  9 39  1  0  0  0
 10 11  1  0  0  0
 10 40  1  0  0  0
 10 41  1  0  0  0
 11 12  1  0  0  0
 11 42  1  0  0  0
 11 43  1  0  0  0
 12 13  1  0  0  0
 12 14  1  0  0  0
 12 44  1  0  0  0
 13 45  1  0  0  0
 13 46  1  0  0  0
 13 47  1  0  0  0
 14 48  1  0  0  0
 14 49  1  0  0  0
 14 50  1  0  0  0
 15 16  1  0  0  0
 15 51  1  0  0  0
 15 52  1  0  0  0
 16 17  1  0  0  0
 16 53  1  0  0  0
 16 54  1  0  0  0
 17 18  1  0  0  0
 17 55  1  0  0  0
 17 56  1  0  0  0
 18 19  1  0  0  0
 18 57  1  0  0  0
 18 58  1  0  0  0
 19 20  1  0  0  0
 19 21  1  0  0  0
 19 59  1  0  0  0
 20 60  1  0  0  0
 20 61  1  0  0  0
 20 62  1  0  0  0
 21 63  1  0  0  0
 21 64  1  0  0  0
 21 65  1  0  0  0
M  END
