C:\Mis documentos\Gara\Polímeros (Tg)\Base de datos polímeros\072 trimer poly(oxy-2,2-dichloromethyltrimethylene).hin
 OpenBabel04231222123D

 41 40  0  0  0  0  0  0  0  0999 V2000
    0.6571   -5.5206   -0.2630 C   0  0  0  0  0
   -0.1987   -4.5409    0.5173 C   0  0  0  0  0
   -0.0248   -3.1063   -0.0307 C   0  0  0  0  0
   -0.7222   -2.1666    0.7902 O   0  0  0  0  0
    1.4325   -2.6727   -0.0284 C   0  0  0  0  0
   -1.9040   -5.0324    0.3312 Cl  0  0  0  0  0
    0.2201   -4.6460    2.2323 Cl  0  0  0  0  0
   -1.9649   -1.7093    0.2931 C   0  0  0  0  0
   -1.8649   -0.3814   -0.4810 C   0  0  0  0  0
   -3.2954    0.1830   -0.6716 C   0  0  0  0  0
   -3.2643    1.3395   -1.5104 O   0  0  0  0  0
   -4.2197   -0.8131   -1.3537 C   0  0  0  0  0
   -0.9082    0.7911    0.4475 Cl  0  0  0  0  0
   -1.0650   -0.6455   -2.0370 Cl  0  0  0  0  0
   -3.3984    2.5870   -0.8578 C   0  0  0  0  0
   -4.8497    3.0886   -0.7685 C   0  0  0  0  0
   -4.8403    4.5931   -0.3981 C   0  0  0  0  0
   -6.1422    5.1291   -0.2905 O   0  0  0  0  0
   -4.0388    4.8672    0.8625 C   0  0  0  0  0
   -5.6784    2.8840   -2.3141 Cl  0  0  0  0  0
   -5.7357    2.1638    0.4679 Cl  0  0  0  0  0
    0.4245   -6.5726    0.0340 H   0  0  0  0  0
    0.4665   -5.4069   -1.3582 H   0  0  0  0  0
    1.7407   -5.3303   -0.0640 H   0  0  0  0  0
   -0.4223   -3.0965   -1.0853 H   0  0  0  0  0
    1.4916   -1.5916   -0.3052 H   0  0  0  0  0
    1.8841   -2.8023    0.9836 H   0  0  0  0  0
    2.0075   -3.2716   -0.7732 H   0  0  0  0  0
   -2.5786   -1.5347    1.2221 H   0  0  0  0  0
   -2.4631   -2.4768   -0.3571 H   0  0  0  0  0
   -3.6965    0.4348    0.3512 H   0  0  0  0  0
   -5.1683   -0.2939   -1.6375 H   0  0  0  0  0
   -3.7533   -1.2207   -2.2816 H   0  0  0  0  0
   -4.4597   -1.6503   -0.6566 H   0  0  0  0  0
   -2.8210    3.2947   -1.5192 H   0  0  0  0  0
   -2.9484    2.5696    0.1703 H   0  0  0  0  0
   -4.3928    5.1575   -1.2703 H   0  0  0  0  0
   -6.5852    4.6870    0.4461 H   0  0  0  0  0
   -4.2186    5.9230    1.1829 H   0  0  0  0  0
   -4.3449    4.1899    1.6949 H   0  0  0  0  0
   -2.9481    4.7350    0.6684 H   0  0  0  0  0
  1  2  1  0  0  0
  1 22  1  0  0  0
  1 23  1  0  0  0
  1 24  1  0  0  0
  2  3  1  0  0  0
  2  6  1  0  0  0
  2  7  1  0  0  0
  3  4  1  0  0  0
  3  5  1  0  0  0
  3 25  1  0  0  0
  4  8  1  0  0  0
  5 26  1  0  0  0
  5 27  1  0  0  0
  5 28  1  0  0  0
  8  9  1  0  0  0
  8 29  1  0  0  0
  8 30  1  0  0  0
  9 10  1  0  0  0
  9 13  1  0  0  0
  9 14  1  0  0  0
 10 11  1  0  0  0
 10 12  1  0  0  0
 10 31  1  0  0  0
 11 15  1  0  0  0
 12 32  1  0  0  0
 12 33  1  0  0  0
 12 34  1  0  0  0
 15 16  1  0  0  0
 15 35  1  0  0  0
 15 36  1  0  0  0
 16 17  1  0  0  0
 16 20  1  0  0  0
 16 21  1  0  0  0
 17 18  1  0  0  0
 17 19  1  0  0  0
 17 37  1  0  0  0
 18 38  1  0  0  0
 19 39  1  0  0  0
 19 40  1  0  0  0
 19 41  1  0  0  0
M  END
