C:\Mis documentos\Gara\Polímeros (Tg)\Base de datos polímeros\073 trimer poly(n-hexyl methacrylate).hin
 OpenBabel04231222133D

 92 91  0  0  0  0  0  0  0  0999 V2000
   -3.1899   -2.9968    0.1410 C   0  0  0  0  0
   -3.1480   -1.4677    0.1021 C   0  0  0  0  0
   -4.3476   -0.9206    0.8585 C   0  0  0  0  0
   -1.8744   -1.0415    0.8085 C   0  0  0  0  0
   -1.7586   -0.4950    1.9064 O   0  0  0  0  0
   -0.7377   -1.3481    0.1085 O   0  0  0  0  0
    0.5277   -0.9885    0.6787 C   0  0  0  0  0
    1.0695   -2.1311    1.5159 C   0  0  0  0  0
    2.5241   -1.8939    1.8569 C   0  0  0  0  0
    3.0722   -3.0095    2.7205 C   0  0  0  0  0
    4.5520   -2.8241    2.9820 C   0  0  0  0  0
    5.0942   -3.9041    3.8819 C   0  0  0  0  0
   -3.1438   -1.0382   -1.3660 C   0  0  0  0  0
   -3.3080    0.4495   -1.7076 C   0  0  0  0  0
   -3.0384    0.5981   -3.2062 C   0  0  0  0  0
   -4.7350    0.8948   -1.4464 C   0  0  0  0  0
   -5.1343    1.8237   -0.7410 O   0  0  0  0  0
   -5.6606    0.1591   -2.1360 O   0  0  0  0  0
   -7.0399    0.5334   -2.0186 C   0  0  0  0  0
   -7.6555   -0.0711   -0.7715 C   0  0  0  0  0
   -9.1434    0.1982   -0.7329 C   0  0  0  0  0
   -9.7778   -0.4071    0.5007 C   0  0  0  0  0
  -11.2692   -0.1479    0.5338 C   0  0  0  0  0
  -11.9079   -0.7505    1.7583 C   0  0  0  0  0
   -2.3405    1.3013   -0.8856 C   0  0  0  0  0
   -2.1601    2.7368   -1.3798 C   0  0  0  0  0
   -2.4323    3.7361   -0.2759 C   0  0  0  0  0
   -0.7635    2.8719   -1.9359 C   0  0  0  0  0
   -0.3774    2.5741   -3.0689 O   0  0  0  0  0
    0.1466    3.3608   -1.0411 O   0  0  0  0  0
    1.5372    3.2724   -1.3805 C   0  0  0  0  0
    2.0539    1.8952   -1.0082 C   0  0  0  0  0
    3.5601    1.8205   -1.1104 C   0  0  0  0  0
    4.0614    0.4912   -0.5867 C   0  0  0  0  0
    5.5652    0.3734   -0.7071 C   0  0  0  0  0
    6.0610   -0.9193   -0.1116 C   0  0  0  0  0
   -2.3264   -3.4194   -0.4265 H   0  0  0  0  0
   -3.1397   -3.3565    1.1966 H   0  0  0  0  0
   -4.1413   -3.3592   -0.3159 H   0  0  0  0  0
   -4.2533    0.1821    1.0150 H   0  0  0  0  0
   -5.2818   -1.1202    0.2771 H   0  0  0  0  0
   -4.4246   -1.4075    1.8604 H   0  0  0  0  0
    1.1725   -0.7979   -0.2236 H   0  0  0  0  0
    0.4340   -0.0497    1.2848 H   0  0  0  0  0
    0.4610   -2.2215    2.4537 H   0  0  0  0  0
    0.9602   -3.0933    0.9504 H   0  0  0  0  0
    3.1278   -1.8173    0.9120 H   0  0  0  0  0
    2.6309   -0.9145    2.3946 H   0  0  0  0  0
    2.5173   -3.0371    3.6952 H   0  0  0  0  0
    2.9022   -3.9967    2.2151 H   0  0  0  0  0
    5.1070   -2.8318    2.0056 H   0  0  0  0  0
    4.7263   -1.8192    3.4503 H   0  0  0  0  0
    6.1871   -3.7530    4.0546 H   0  0  0  0  0
    4.5758   -3.8904    4.8712 H   0  0  0  0  0
    4.9454   -4.9114    3.4231 H   0  0  0  0  0
   -3.9770   -1.5923   -1.8803 H   0  0  0  0  0
   -2.1722   -1.3802   -1.8185 H   0  0  0  0  0
   -3.4900    1.5392   -3.6023 H   0  0  0  0  0
   -1.9368    0.6285   -3.3920 H   0  0  0  0  0
   -3.4884   -0.2581   -3.7644 H   0  0  0  0  0
   -7.1379    1.6501   -2.0143 H   0  0  0  0  0
   -7.4962    0.1048   -2.9514 H   0  0  0  0  0
   -7.4630   -1.1757   -0.7560 H   0  0  0  0  0
   -7.1574    0.3701    0.1326 H   0  0  0  0  0
   -9.3254    1.3055   -0.7441 H   0  0  0  0  0
   -9.6278   -0.2273   -1.6515 H   0  0  0  0  0
   -9.5884   -1.5128    0.5181 H   0  0  0  0  0
   -9.3006    0.0250    1.4195 H   0  0  0  0  0
  -11.4562    0.9585    0.5168 H   0  0  0  0  0
  -11.7436   -0.5766   -0.3884 H   0  0  0  0  0
  -13.0061   -0.5481    1.7624 H   0  0  0  0  0
  -11.7530   -1.8563    1.7805 H   0  0  0  0  0
  -11.4657   -0.3167    2.6877 H   0  0  0  0  0
   -1.3452    0.7759   -0.8823 H   0  0  0  0  0
   -2.7036    1.3279    0.1788 H   0  0  0  0  0
   -2.8702    2.9473   -2.2293 H   0  0  0  0  0
   -2.2726    4.7755   -0.6496 H   0  0  0  0  0
   -3.4916    3.6269    0.0663 H   0  0  0  0  0
   -1.7483    3.5644    0.5900 H   0  0  0  0  0
    1.6931    3.4890   -2.4684 H   0  0  0  0  0
    2.0062    4.0750   -0.7508 H   0  0  0  0  0
    1.7290    1.6514    0.0390 H   0  0  0  0  0
    1.5837    1.1340   -1.6861 H   0  0  0  0  0
    3.8748    1.9520   -2.1789 H   0  0  0  0  0
    4.0241    2.6554   -0.5215 H   0  0  0  0  0
    3.7613    0.3755    0.4898 H   0  0  0  0  0
    3.5717   -0.3452   -1.1532 H   0  0  0  0  0
    5.8598    0.4306   -1.7882 H   0  0  0  0  0
    6.0521    1.2397   -0.1859 H   0  0  0  0  0
    7.1688   -1.0002   -0.2244 H   0  0  0  0  0
    5.8108   -0.9734    0.9767 H   0  0  0  0  0
    5.5883   -1.7950   -0.6191 H   0  0  0  0  0
  1  2  1  0  0  0
  1 37  1  0  0  0
  1 38  1  0  0  0
  1 39  1  0  0  0
  2  3  1  0  0  0
  2  4  1  0  0  0
  2 13  1  0  0  0
  3 40  1  0  0  0
  3 41  1  0  0  0
  3 42  1  0  0  0
  4  5  2  0  0  0
  4  6  1  0  0  0
  6  7  1  0  0  0
  7  8  1  0  0  0
  7 43  1  0  0  0
  7 44  1  0  0  0
  8  9  1  0  0  0
  8 45  1  0  0  0
  8 46  1  0  0  0
  9 10  1  0  0  0
  9 47  1  0  0  0
  9 48  1  0  0  0
 10 11  1  0  0  0
 10 49  1  0  0  0
 10 50  1  0  0  0
 11 12  1  0  0  0
 11 51  1  0  0  0
 11 52  1  0  0  0
 12 53  1  0  0  0
 12 54  1  0  0  0
 12 55  1  0  0  0
 13 14  1  0  0  0
 13 56  1  0  0  0
 13 57  1  0  0  0
 14 15  1  0  0  0
 14 16  1  0  0  0
 14 25  1  0  0  0
 15 58  1  0  0  0
 15 59  1  0  0  0
 15 60  1  0  0  0
 16 17  2  0  0  0
 16 18  1  0  0  0
 18 19  1  0  0  0
 19 20  1  0  0  0
 19 61  1  0  0  0
 19 62  1  0  0  0
 20 21  1  0  0  0
 20 63  1  0  0  0
 20 64  1  0  0  0
 21 22  1  0  0  0
 21 65  1  0  0  0
 21 66  1  0  0  0
 22 23  1  0  0  0
 22 67  1  0  0  0
 22 68  1  0  0  0
 23 24  1  0  0  0
 23 69  1  0  0  0
 23 70  1  0  0  0
 24 71  1  0  0  0
 24 72  1  0  0  0
 24 73  1  0  0  0
 25 26  1  0  0  0
 25 74  1  0  0  0
 25 75  1  0  0  0
 26 27  1  0  0  0
 26 28  1  0  0  0
 26 76  1  0  0  0
 27 77  1  0  0  0
 27 78  1  0  0  0
 27 79  1  0  0  0
 28 29  2  0  0  0
 28 30  1  0  0  0
 30 31  1  0  0  0
 31 32  1  0  0  0
 31 80  1  0  0  0
 31 81  1  0  0  0
 32 33  1  0  0  0
 32 82  1  0  0  0
 32 83  1  0  0  0
 33 34  1  0  0  0
 33 84  1  0  0  0
 33 85  1  0  0  0
 34 35  1  0  0  0
 34 86  1  0  0  0
 34 87  1  0  0  0
 35 36  1  0  0  0
 35 88  1  0  0  0
 35 89  1  0  0  0
 36 90  1  0  0  0
 36 91  1  0  0  0
 36 92  1  0  0  0
M  END
