C:\Mis documentos\Gara\Polímeros (Tg)\Base de datos polímeros\074 trimer poly(vinyl isopropyl ether).hin
 OpenBabel04231222133D

 50 49  0  0  0  0  0  0  0  0999 V2000
   -2.5616   -3.3702   -0.2215 C   0  0  0  0  0
   -2.5298   -1.8621   -0.0448 C   0  0  0  0  0
   -3.3802   -1.5143    1.0556 O   0  0  0  0  0
   -4.5785   -0.8241    0.6875 C   0  0  0  0  0
   -5.5558   -1.7476   -0.0141 C   0  0  0  0  0
   -5.1564   -0.2934    1.9886 C   0  0  0  0  0
   -1.1217   -1.3904    0.3069 C   0  0  0  0  0
   -1.0090    0.1325    0.2652 C   0  0  0  0  0
    0.0356    0.5383    1.1557 O   0  0  0  0  0
   -0.4246    1.1398    2.3713 C   0  0  0  0  0
   -1.1268    0.1348    3.2637 C   0  0  0  0  0
    0.8176    1.7026    3.0404 C   0  0  0  0  0
   -0.6237    0.6155   -1.1297 C   0  0  0  0  0
   -0.7762    2.1220   -1.2396 C   0  0  0  0  0
   -0.4715    2.4646   -2.5887 O   0  0  0  0  0
   -0.2806    3.8695   -2.7878 C   0  0  0  0  0
    0.2899    4.0096   -4.1884 C   0  0  0  0  0
   -1.5878    4.6268   -2.6465 C   0  0  0  0  0
   -1.9136   -3.6659   -1.0797 H   0  0  0  0  0
   -2.1946   -3.8748    0.7037 H   0  0  0  0  0
   -3.6076   -3.7089   -0.4161 H   0  0  0  0  0
   -2.8748   -1.3592   -0.9910 H   0  0  0  0  0
   -4.3152    0.0369    0.0083 H   0  0  0  0  0
   -6.5222   -1.2171   -0.1850 H   0  0  0  0  0
   -5.1442   -2.0744   -0.9991 H   0  0  0  0  0
   -5.7447   -2.6551    0.6079 H   0  0  0  0  0
   -6.0526    0.3325    1.7683 H   0  0  0  0  0
   -5.4528   -1.1386    2.6540 H   0  0  0  0  0
   -4.3938    0.3242    2.5207 H   0  0  0  0  0
   -0.3926   -1.8494   -0.4078 H   0  0  0  0  0
   -0.8617   -1.7441    1.3395 H   0  0  0  0  0
   -1.9938    0.5866    0.5717 H   0  0  0  0  0
   -1.1336    1.9790    2.1158 H   0  0  0  0  0
   -1.4396    0.6282    4.2140 H   0  0  0  0  0
   -2.0323   -0.2783    2.7519 H   0  0  0  0  0
   -0.4421   -0.7130    3.5057 H   0  0  0  0  0
    0.5264    2.2209    3.9839 H   0  0  0  0  0
    1.5343    0.8812    3.2786 H   0  0  0  0  0
    1.3248    2.4278    2.3610 H   0  0  0  0  0
   -1.2782    0.1126   -1.8870 H   0  0  0  0  0
    0.4383    0.3329   -1.3479 H   0  0  0  0  0
   -1.8290    2.4384   -1.0095 H   0  0  0  0  0
   -0.0757    2.6380   -0.5303 H   0  0  0  0  0
    0.4629    4.2507   -2.0308 H   0  0  0  0  0
    0.5214    5.0820   -4.3888 H   0  0  0  0  0
    1.2236    3.4060   -4.2835 H   0  0  0  0  0
   -0.4454    3.6449   -4.9442 H   0  0  0  0  0
   -1.4487    5.6854   -2.9703 H   0  0  0  0  0
   -2.3773    4.1553   -3.2790 H   0  0  0  0  0
   -1.9320    4.6190   -1.5850 H   0  0  0  0  0
  1  2  1  0  0  0
  1 19  1  0  0  0
  1 20  1  0  0  0
  1 21  1  0  0  0
  2  3  1  0  0  0
  2  7  1  0  0  0
  2 22  1  0  0  0
  3  4  1  0  0  0
  4  5  1  0  0  0
  4  6  1  0  0  0
  4 23  1  0  0  0
  5 24  1  0  0  0
  5 25  1  0  0  0
  5 26  1  0  0  0
  6 27  1  0  0  0
  6 28  1  0  0  0
  6 29  1  0  0  0
  7  8  1  0  0  0
  7 30  1  0  0  0
  7 31  1  0  0  0
  8  9  1  0  0  0
  8 13  1  0  0  0
  8 32  1  0  0  0
  9 10  1  0  0  0
 10 11  1  0  0  0
 10 12  1  0  0  0
 10 33  1  0  0  0
 11 34  1  0  0  0
 11 35  1  0  0  0
 11 36  1  0  0  0
 12 37  1  0  0  0
 12 38  1  0  0  0
 12 39  1  0  0  0
 13 14  1  0  0  0
 13 40  1  0  0  0
 13 41  1  0  0  0
 14 15  1  0  0  0
 14 42  1  0  0  0
 14 43  1  0  0  0
 15 16  1  0  0  0
 16 17  1  0  0  0
 16 18  1  0  0  0
 16 44  1  0  0  0
 17 45  1  0  0  0
 17 46  1  0  0  0
 17 47  1  0  0  0
 18 48  1  0  0  0
 18 49  1  0  0  0
 18 50  1  0  0  0
M  END
