C:\Mis documentos\Gara\Polímeros (Tg)\Base de datos polímeros\075 trimer poly[p-(n-butyl)styrene].hin
 OpenBabel04231222143D

 86 88  0  0  0  0  0  0  0  0999 V2000
   -0.2940   -4.4305    0.2843 C   0  0  0  0  0
   -0.6227   -2.9509    0.3869 C   0  0  0  0  0
    0.6283   -2.1306    0.3539 C   0  0  0  0  0
    1.4771   -2.1451   -0.7588 C   0  0  0  0  0
    2.6430   -1.3826   -0.7700 C   0  0  0  0  0
    2.9835   -0.5902    0.3316 C   0  0  0  0  0
    2.1373   -0.5780    1.4466 C   0  0  0  0  0
    0.9721   -1.3396    1.4576 C   0  0  0  0  0
    4.2270    0.2274    0.3273 C   0  0  0  0  0
    3.9282    1.6986    0.1069 C   0  0  0  0  0
    5.1933    2.5280    0.1649 C   0  0  0  0  0
    4.9073    3.9871   -0.0797 C   0  0  0  0  0
   -1.6004   -2.5700   -0.7188 C   0  0  0  0  0
   -1.9970   -1.0972   -0.7200 C   0  0  0  0  0
   -2.7230   -0.7747   -1.9909 C   0  0  0  0  0
   -2.1912    0.1597   -2.8866 C   0  0  0  0  0
   -2.8586    0.4647   -4.0713 C   0  0  0  0  0
   -4.0702   -0.1599   -4.3844 C   0  0  0  0  0
   -4.6007   -1.0985   -3.4908 C   0  0  0  0  0
   -3.9341   -1.4032   -2.3078 C   0  0  0  0  0
   -4.7959    0.1736   -5.6400 C   0  0  0  0  0
   -4.7241   -0.9549   -6.6514 C   0  0  0  0  0
   -5.5069   -0.6167   -7.9024 C   0  0  0  0  0
   -5.4353   -1.7299   -8.9154 C   0  0  0  0  0
   -2.8366   -0.7402    0.5008 C   0  0  0  0  0
   -3.0524    0.7584    0.6102 C   0  0  0  0  0
   -3.7723    1.1168    1.8624 C   0  0  0  0  0
   -3.0577    1.4518    3.0181 C   0  0  0  0  0
   -3.7289    1.7959    4.1889 C   0  0  0  0  0
   -5.1276    1.8113    4.2257 C   0  0  0  0  0
   -5.8424    1.4761    3.0698 C   0  0  0  0  0
   -5.1714    1.1325    1.8990 C   0  0  0  0  0
   -5.8467    2.1853    5.4738 C   0  0  0  0  0
   -6.2596    0.9614    6.2698 C   0  0  0  0  0
   -6.9881    1.3547    7.5373 C   0  0  0  0  0
   -7.3997    0.1440    8.3345 C   0  0  0  0  0
   -1.2294   -5.0366    0.3507 H   0  0  0  0  0
    0.2080   -4.6566   -0.6870 H   0  0  0  0  0
    0.3882   -4.7334    1.1142 H   0  0  0  0  0
   -1.1337   -2.7839    1.3799 H   0  0  0  0  0
    1.2199   -2.7631   -1.6325 H   0  0  0  0  0
    3.3003   -1.4044   -1.6521 H   0  0  0  0  0
    2.3973    0.0399    2.3192 H   0  0  0  0  0
    0.3154   -1.3177    2.3406 H   0  0  0  0  0
    4.7587    0.1002    1.3091 H   0  0  0  0  0
    4.9235   -0.1347   -0.4755 H   0  0  0  0  0
    3.4322    1.8362   -0.8895 H   0  0  0  0  0
    3.2066    2.0547    0.8888 H   0  0  0  0  0
    5.6774    2.4020    1.1694 H   0  0  0  0  0
    5.9221    2.1529   -0.6016 H   0  0  0  0  0
    5.8508    4.5820   -0.0252 H   0  0  0  0  0
    4.4540    4.1362   -1.0896 H   0  0  0  0  0
    4.1957    4.3832    0.6846 H   0  0  0  0  0
   -2.5224   -3.2007   -0.6116 H   0  0  0  0  0
   -1.1371   -2.8154   -1.7115 H   0  0  0  0  0
   -1.0480   -0.4860   -0.6781 H   0  0  0  0  0
   -1.2386    0.6600   -2.6551 H   0  0  0  0  0
   -2.4284    1.2034   -4.7642 H   0  0  0  0  0
   -5.5522   -1.5972   -3.7289 H   0  0  0  0  0
   -4.3619   -2.1431   -1.6145 H   0  0  0  0  0
   -5.8727    0.3864   -5.3982 H   0  0  0  0  0
   -4.3688    1.1069   -6.0954 H   0  0  0  0  0
   -3.6532   -1.1532   -6.9189 H   0  0  0  0  0
   -5.1311   -1.8946   -6.1932 H   0  0  0  0  0
   -6.5785   -0.4214   -7.6322 H   0  0  0  0  0
   -5.1030    0.3288   -8.3523 H   0  0  0  0  0
   -6.0198   -1.4622   -9.8285 H   0  0  0  0  0
   -4.3771   -1.9210   -9.2173 H   0  0  0  0  0
   -5.8543   -2.6752   -8.4929 H   0  0  0  0  0
   -2.3135   -1.1010    1.4255 H   0  0  0  0  0
   -3.8278   -1.2614    0.4476 H   0  0  0  0  0
   -2.0577    1.2800    0.5851 H   0  0  0  0  0
   -3.6357    1.1139   -0.2816 H   0  0  0  0  0
   -1.9576    1.4458    2.9996 H   0  0  0  0  0
   -3.1560    2.0590    5.0906 H   0  0  0  0  0
   -6.9424    1.4864    3.0886 H   0  0  0  0  0
   -5.7424    0.8737    0.9947 H   0  0  0  0  0
   -5.1909    2.8380    6.1105 H   0  0  0  0  0
   -6.7605    2.7855    5.2156 H   0  0  0  0  0
   -6.9212    0.3111    5.6392 H   0  0  0  0  0
   -5.3506    0.3577    6.5292 H   0  0  0  0  0
   -6.3247    2.0097    8.1621 H   0  0  0  0  0
   -7.8959    1.9600    7.2749 H   0  0  0  0  0
   -7.9341    0.4548    9.2644 H   0  0  0  0  0
   -8.0814   -0.5084    7.7369 H   0  0  0  0  0
   -6.5057   -0.4588    8.6258 H   0  0  0  0  0
  1  2  1  0  0  0
  1 37  1  0  0  0
  1 38  1  0  0  0
  1 39  1  0  0  0
  2  3  1  0  0  0
  2 13  1  0  0  0
  2 40  1  0  0  0
  3  4  2  0  0  0
  3  8  1  0  0  0
  4  5  1  0  0  0
  4 41  1  0  0  0
  5  6  2  0  0  0
  5 42  1  0  0  0
  6  7  1  0  0  0
  6  9  1  0  0  0
  7  8  2  0  0  0
  7 43  1  0  0  0
  8 44  1  0  0  0
  9 10  1  0  0  0
  9 45  1  0  0  0
  9 46  1  0  0  0
 10 11  1  0  0  0
 10 47  1  0  0  0
 10 48  1  0  0  0
 11 12  1  0  0  0
 11 49  1  0  0  0
 11 50  1  0  0  0
 12 51  1  0  0  0
 12 52  1  0  0  0
 12 53  1  0  0  0
 13 14  1  0  0  0
 13 54  1  0  0  0
 13 55  1  0  0  0
 14 15  1  0  0  0
 14 25  1  0  0  0
 14 56  1  0  0  0
 15 16  2  0  0  0
 15 20  1  0  0  0
 16 17  1  0  0  0
 16 57  1  0  0  0
 17 18  2  0  0  0
 17 58  1  0  0  0
 18 19  1  0  0  0
 18 21  1  0  0  0
 19 20  2  0  0  0
 19 59  1  0  0  0
 20 60  1  0  0  0
 21 22  1  0  0  0
 21 61  1  0  0  0
 21 62  1  0  0  0
 22 23  1  0  0  0
 22 63  1  0  0  0
 22 64  1  0  0  0
 23 24  1  0  0  0
 23 65  1  0  0  0
 23 66  1  0  0  0
 24 67  1  0  0  0
 24 68  1  0  0  0
 24 69  1  0  0  0
 25 26  1  0  0  0
 25 70  1  0  0  0
 25 71  1  0  0  0
 26 27  1  0  0  0
 26 72  1  0  0  0
 26 73  1  0  0  0
 27 28  2  0  0  0
 27 32  1  0  0  0
 28 29  1  0  0  0
 28 74  1  0  0  0
 29 30  2  0  0  0
 29 75  1  0  0  0
 30 31  1  0  0  0
 30 33  1  0  0  0
 31 32  2  0  0  0
 31 76  1  0  0  0
 32 77  1  0  0  0
 33 34  1  0  0  0
 33 78  1  0  0  0
 33 79  1  0  0  0
 34 35  1  0  0  0
 34 80  1  0  0  0
 34 81  1  0  0  0
 35 36  1  0  0  0
 35 82  1  0  0  0
 35 83  1  0  0  0
 36 84  1  0  0  0
 36 85  1  0  0  0
 36 86  1  0  0  0
M  END
