C:\Mis documentos\Gara\Polímeros (Tg)\Base de datos polímeros\076 trimer poly(n-butyl methacrylate).hin
 OpenBabel04231222143D

 74 73  0  0  0  0  0  0  0  0999 V2000
   -1.9574   -3.0644    1.0875 C   0  0  0  0  0
   -1.8508   -1.5397    1.1371 C   0  0  0  0  0
   -3.0399   -0.9836    1.9037 C   0  0  0  0  0
   -0.5733   -1.1993    1.8811 C   0  0  0  0  0
   -0.4519   -0.6565    2.9807 O   0  0  0  0  0
    0.5596   -1.5810    1.2139 O   0  0  0  0  0
    1.8269   -1.2618    1.8042 C   0  0  0  0  0
    2.2252   -2.3127    2.8216 C   0  0  0  0  0
    3.6296   -2.0600    3.3247 C   0  0  0  0  0
    4.0499   -3.1037    4.3270 C   0  0  0  0  0
   -1.7993   -1.0255   -0.3031 C   0  0  0  0  0
   -1.8920    0.4862   -0.5481 C   0  0  0  0  0
   -1.6324    0.7221   -2.0354 C   0  0  0  0  0
   -3.2918    0.9869   -0.2457 C   0  0  0  0  0
   -3.6349    1.9379    0.4604 O   0  0  0  0  0
   -4.2718    0.2785   -0.8860 O   0  0  0  0  0
   -5.6266    0.7075   -0.6584 C   0  0  0  0  0
   -6.5015   -0.2096   -1.4913 C   0  0  0  0  0
   -7.9602    0.1489   -1.3059 C   0  0  0  0  0
   -8.8522   -0.7556   -2.1165 C   0  0  0  0  0
   -0.8724    1.2370    0.3089 C   0  0  0  0  0
   -0.6426    2.6875   -0.0897 C   0  0  0  0  0
   -0.0879    3.4781    1.0809 C   0  0  0  0  0
    0.3050    2.8067   -1.2564 C   0  0  0  0  0
    0.1482    3.4502   -2.2967 O   0  0  0  0  0
    1.4750    2.1168   -1.0958 O   0  0  0  0  0
    2.4181    2.1837   -2.1794 C   0  0  0  0  0
    3.5748    1.2869   -1.7802 C   0  0  0  0  0
    4.5885    1.2057   -2.9009 C   0  0  0  0  0
    5.7393    0.3053   -2.5323 C   0  0  0  0  0
   -1.1011   -3.4913    0.5121 H   0  0  0  0  0
   -1.9430   -3.4853    2.1212 H   0  0  0  0  0
   -2.9140   -3.3593    0.5941 H   0  0  0  0  0
   -2.8934    0.1006    2.1334 H   0  0  0  0  0
   -3.9682   -1.0999    1.2924 H   0  0  0  0  0
   -3.1637   -1.5289    2.8702 H   0  0  0  0  0
    2.5211   -1.2584    0.9207 H   0  0  0  0  0
    1.7877   -0.2428    2.2703 H   0  0  0  0  0
    1.4986   -2.2878    3.6763 H   0  0  0  0  0
    2.1615   -3.3299    2.3545 H   0  0  0  0  0
    4.3441   -2.0600    2.4591 H   0  0  0  0  0
    3.6799   -1.0427    3.7961 H   0  0  0  0  0
    5.0861   -2.8975    4.6888 H   0  0  0  0  0
    3.3620   -3.1043    5.2070 H   0  0  0  0  0
    4.0321   -4.1216    3.8678 H   0  0  0  0  0
   -2.6457   -1.5092   -0.8645 H   0  0  0  0  0
   -0.8349   -1.3825   -0.7586 H   0  0  0  0  0
   -1.8462    1.7842   -2.3098 H   0  0  0  0  0
   -0.5611    0.5063   -2.2681 H   0  0  0  0  0
   -2.2859    0.0571   -2.6496 H   0  0  0  0  0
   -5.8508    0.6198    0.4367 H   0  0  0  0  0
   -5.7262    1.7793   -0.9706 H   0  0  0  0  0
   -6.2156   -0.1202   -2.5717 H   0  0  0  0  0
   -6.3237   -1.2742   -1.1881 H   0  0  0  0  0
   -8.2308    0.0709   -0.2195 H   0  0  0  0  0
   -8.1258    1.2158   -1.6123 H   0  0  0  0  0
   -9.9232   -0.4760   -1.9686 H   0  0  0  0  0
   -8.6129   -0.6743   -3.2044 H   0  0  0  0  0
   -8.7195   -1.8208   -1.8076 H   0  0  0  0  0
    0.1039    0.6803    0.2677 H   0  0  0  0  0
   -1.2286    1.2223    1.3766 H   0  0  0  0  0
   -1.6243    3.1460   -0.4078 H   0  0  0  0  0
    0.1042    4.5351    0.7769 H   0  0  0  0  0
   -0.8252    3.4759    1.9198 H   0  0  0  0  0
    0.8686    3.0260    1.4376 H   0  0  0  0  0
    1.9180    1.8283   -3.1180 H   0  0  0  0  0
    2.7391    3.2488   -2.3142 H   0  0  0  0  0
    4.0566    1.6894   -0.8515 H   0  0  0  0  0
    3.1864    0.2637   -1.5351 H   0  0  0  0  0
    4.0909    0.8202   -3.8300 H   0  0  0  0  0
    4.9729    2.2340   -3.1338 H   0  0  0  0  0
    6.4774    0.2589   -3.3691 H   0  0  0  0  0
    6.2618    0.6851   -1.6212 H   0  0  0  0  0
    5.3782   -0.7307   -2.3225 H   0  0  0  0  0
  1  2  1  0  0  0
  1 31  1  0  0  0
  1 32  1  0  0  0
  1 33  1  0  0  0
  2  3  1  0  0  0
  2  4  1  0  0  0
  2 11  1  0  0  0
  3 34  1  0  0  0
  3 35  1  0  0  0
  3 36  1  0  0  0
  4  5  2  0  0  0
  4  6  1  0  0  0
  6  7  1  0  0  0
  7  8  1  0  0  0
  7 37  1  0  0  0
  7 38  1  0  0  0
  8  9  1  0  0  0
  8 39  1  0  0  0
  8 40  1  0  0  0
  9 10  1  0  0  0
  9 41  1  0  0  0
  9 42  1  0  0  0
 10 43  1  0  0  0
 10 44  1  0  0  0
 10 45  1  0  0  0
 11 12  1  0  0  0
 11 46  1  0  0  0
 11 47  1  0  0  0
 12 13  1  0  0  0
 12 14  1  0  0  0
 12 21  1  0  0  0
 13 48  1  0  0  0
 13 49  1  0  0  0
 13 50  1  0  0  0
 14 15  2  0  0  0
 14 16  1  0  0  0
 16 17  1  0  0  0
 17 18  1  0  0  0
 17 51  1  0  0  0
 17 52  1  0  0  0
 18 19  1  0  0  0
 18 53  1  0  0  0
 18 54  1  0  0  0
 19 20  1  0  0  0
 19 55  1  0  0  0
 19 56  1  0  0  0
 20 57  1  0  0  0
 20 58  1  0  0  0
 20 59  1  0  0  0
 21 22  1  0  0  0
 21 60  1  0  0  0
 21 61  1  0  0  0
 22 23  1  0  0  0
 22 24  1  0  0  0
 22 62  1  0  0  0
 23 63  1  0  0  0
 23 64  1  0  0  0
 23 65  1  0  0  0
 24 25  2  0  0  0
 24 26  1  0  0  0
 26 27  1  0  0  0
 27 28  1  0  0  0
 27 66  1  0  0  0
 27 67  1  0  0  0
 28 29  1  0  0  0
 28 68  1  0  0  0
 28 69  1  0  0  0
 29 30  1  0  0  0
 29 70  1  0  0  0
 29 71  1  0  0  0
 30 72  1  0  0  0
 30 73  1  0  0  0
 30 74  1  0  0  0
M  END
