C:\Mis documentos\Gara\Polímeros (Tg)\Base de datos polímeros\077 trimer poly(2-methoxyethyl methacrylate).hin
 OpenBabel04231222143D

 68 67  0  0  0  0  0  0  0  0999 V2000
   -1.6435   -3.3716    0.6226 C   0  0  0  0  0
   -1.6612   -1.8458    0.7292 C   0  0  0  0  0
   -3.0363   -1.3974    1.1968 C   0  0  0  0  0
   -0.6288   -1.4523    1.7682 C   0  0  0  0  0
   -0.8109   -0.9309    2.8695 O   0  0  0  0  0
    0.6549   -1.7608    1.4006 O   0  0  0  0  0
    1.7139   -1.3793    2.2846 C   0  0  0  0  0
    1.8240   -2.3756    3.4331 C   0  0  0  0  0
    3.1153   -2.1758    4.0024 O   0  0  0  0  0
    3.3281   -2.9757    5.1532 C   0  0  0  0  0
   -1.2995   -1.2764   -0.6441 C   0  0  0  0  0
   -1.4444    0.2325   -0.8792 C   0  0  0  0  0
   -0.8349    0.5395   -2.2468 C   0  0  0  0  0
   -2.9110    0.6183   -0.9377 C   0  0  0  0  0
   -3.5100    1.4754   -0.2858 O   0  0  0  0  0
   -3.6153   -0.0877   -1.8781 O   0  0  0  0  0
   -4.9864    0.2635   -2.0911 C   0  0  0  0  0
   -5.8623   -0.4079   -1.0389 C   0  0  0  0  0
   -7.2079   -0.2015   -1.4586 O   0  0  0  0  0
   -8.1491   -0.6504   -0.4979 C   0  0  0  0  0
   -0.7382    1.0256    0.2206 C   0  0  0  0  0
   -0.5622    2.5089   -0.0712 C   0  0  0  0  0
   -0.3859    3.2865    1.2199 C   0  0  0  0  0
    0.6213    2.7668   -0.9692 C   0  0  0  0  0
    0.6426    3.3937   -2.0303 O   0  0  0  0  0
    1.7951    2.2374   -0.5026 O   0  0  0  0  0
    2.9809    2.4544   -1.2730 C   0  0  0  0  0
    3.0374    1.4520   -2.4211 C   0  0  0  0  0
    4.3915    1.4358   -2.8639 O   0  0  0  0  0
    4.5846    0.5854   -3.9814 C   0  0  0  0  0
   -0.6460   -3.7206    0.2624 H   0  0  0  0  0
   -1.8478   -3.8299    1.6197 H   0  0  0  0  0
   -2.4301   -3.7081   -0.0941 H   0  0  0  0  0
   -3.0282   -0.3167    1.4827 H   0  0  0  0  0
   -3.7797   -1.5454    0.3747 H   0  0  0  0  0
   -3.3510   -1.9898    2.0894 H   0  0  0  0  0
    2.6257   -1.4142    1.6305 H   0  0  0  0  0
    1.5452   -0.3421    2.6713 H   0  0  0  0  0
    1.0249   -2.1846    4.1973 H   0  0  0  0  0
    1.7358   -3.4288    3.0560 H   0  0  0  0  0
    4.3658   -2.7177    5.4818 H   0  0  0  0  0
    2.5881   -2.7227    5.9521 H   0  0  0  0  0
    3.2556   -4.0615    4.8966 H   0  0  0  0  0
   -1.9429   -1.7974   -1.4059 H   0  0  0  0  0
   -0.2286   -1.5488   -0.8540 H   0  0  0  0  0
   -1.0718    1.5869   -2.5571 H   0  0  0  0  0
    0.2766    0.4292   -2.1979 H   0  0  0  0  0
   -1.2435   -0.1599   -3.0153 H   0  0  0  0  0
   -5.1199    1.3751   -2.0660 H   0  0  0  0  0
   -5.2044   -0.1384   -3.1160 H   0  0  0  0  0
   -5.6493   -1.5085   -0.9845 H   0  0  0  0  0
   -5.6863    0.0559   -0.0321 H   0  0  0  0  0
   -9.1433   -0.4301   -0.9610 H   0  0  0  0  0
   -8.0341   -1.7478   -0.3172 H   0  0  0  0  0
   -8.0300   -0.0910    0.4627 H   0  0  0  0  0
    0.2680    0.5585    0.4051 H   0  0  0  0  0
   -1.3376    0.9284    1.1683 H   0  0  0  0  0
   -1.4781    2.8934   -0.6082 H   0  0  0  0  0
   -0.2327    4.3703    1.0002 H   0  0  0  0  0
   -1.2985    3.1759    1.8540 H   0  0  0  0  0
    0.4980    2.9052    1.7858 H   0  0  0  0  0
    3.0155    3.5045   -1.6594 H   0  0  0  0  0
    3.8101    2.2745   -0.5381 H   0  0  0  0  0
    2.7399    0.4283   -2.0692 H   0  0  0  0  0
    2.3564    1.7699   -3.2543 H   0  0  0  0  0
    5.6760    0.6727   -4.2105 H   0  0  0  0  0
    4.3206   -0.4700   -3.7232 H   0  0  0  0  0
    3.9714    0.9300   -4.8504 H   0  0  0  0  0
  1  2  1  0  0  0
  1 31  1  0  0  0
  1 32  1  0  0  0
  1 33  1  0  0  0
  2  3  1  0  0  0
  2  4  1  0  0  0
  2 11  1  0  0  0
  3 34  1  0  0  0
  3 35  1  0  0  0
  3 36  1  0  0  0
  4  5  2  0  0  0
  4  6  1  0  0  0
  6  7  1  0  0  0
  7  8  1  0  0  0
  7 37  1  0  0  0
  7 38  1  0  0  0
  8  9  1  0  0  0
  8 39  1  0  0  0
  8 40  1  0  0  0
  9 10  1  0  0  0
 10 41  1  0  0  0
 10 42  1  0  0  0
 10 43  1  0  0  0
 11 12  1  0  0  0
 11 44  1  0  0  0
 11 45  1  0  0  0
 12 13  1  0  0  0
 12 14  1  0  0  0
 12 21  1  0  0  0
 13 46  1  0  0  0
 13 47  1  0  0  0
 13 48  1  0  0  0
 14 15  2  0  0  0
 14 16  1  0  0  0
 16 17  1  0  0  0
 17 18  1  0  0  0
 17 49  1  0  0  0
 17 50  1  0  0  0
 18 19  1  0  0  0
 18 51  1  0  0  0
 18 52  1  0  0  0
 19 20  1  0  0  0
 20 53  1  0  0  0
 20 54  1  0  0  0
 20 55  1  0  0  0
 21 22  1  0  0  0
 21 56  1  0  0  0
 21 57  1  0  0  0
 22 23  1  0  0  0
 22 24  1  0  0  0
 22 58  1  0  0  0
 23 59  1  0  0  0
 23 60  1  0  0  0
 23 61  1  0  0  0
 24 25  2  0  0  0
 24 26  1  0  0  0
 26 27  1  0  0  0
 27 28  1  0  0  0
 27 62  1  0  0  0
 27 63  1  0  0  0
 28 29  1  0  0  0
 28 64  1  0  0  0
 28 65  1  0  0  0
 29 30  1  0  0  0
 30 66  1  0  0  0
 30 67  1  0  0  0
 30 68  1  0  0  0
M  END
