C:\Mis documentos\Gara\Polímeros (Tg)\Base de datos polímeros\078 trimer poly(3,3,3-trifluoropropylene).hin
 OpenBabel04231222153D

 29 28  0  0  0  0  0  0  0  0999 V2000
   -2.2854   -3.5058   -0.8128 C   0  0  0  0  0
   -2.6624   -2.1073   -0.3763 C   0  0  0  0  0
   -4.1717   -2.0881    0.0365 C   0  0  0  0  0
   -4.6446   -0.8416    0.3663 F   0  0  0  0  0
   -5.0151   -2.5124   -0.9596 F   0  0  0  0  0
   -4.4828   -2.8741    1.1158 F   0  0  0  0  0
   -1.7780   -1.6416    0.7673 C   0  0  0  0  0
   -1.6191   -0.1292    0.8171 C   0  0  0  0  0
   -1.1065    0.2754    2.2403 C   0  0  0  0  0
   -0.9405    1.6271    2.4090 F   0  0  0  0  0
   -1.9547   -0.0903    3.2547 F   0  0  0  0  0
    0.1043   -0.2692    2.5851 F   0  0  0  0  0
   -0.6605    0.3675   -0.2515 C   0  0  0  0  0
   -0.9815    1.7777   -0.6889 C   0  0  0  0  0
   -0.0032    2.2449   -1.7978 C   0  0  0  0  0
   -0.2532    3.5209   -2.2358 F   0  0  0  0  0
    1.3160    2.2571   -1.4220 F   0  0  0  0  0
   -0.0337    1.4763   -2.9352 F   0  0  0  0  0
   -1.2379   -3.5156   -1.1992 H   0  0  0  0  0
   -2.3600   -4.2153    0.0470 H   0  0  0  0  0
   -2.9703   -3.8548   -1.6240 H   0  0  0  0  0
   -2.5768   -1.4044   -1.2507 H   0  0  0  0  0
   -0.7613   -2.1088    0.6654 H   0  0  0  0  0
   -2.2135   -2.0021    1.7399 H   0  0  0  0  0
   -2.6271    0.3594    0.6990 H   0  0  0  0  0
   -0.7100   -0.3118   -1.1456 H   0  0  0  0  0
    0.3941    0.3248    0.1361 H   0  0  0  0  0
   -2.0194    1.8449   -1.1045 H   0  0  0  0  0
   -0.8919    2.4924    0.1705 H   0  0  0  0  0
  1  2  1  0  0  0
  1 19  1  0  0  0
  1 20  1  0  0  0
  1 21  1  0  0  0
  2  3  1  0  0  0
  2  7  1  0  0  0
  2 22  1  0  0  0
  3  4  1  0  0  0
  3  5  1  0  0  0
  3  6  1  0  0  0
  7  8  1  0  0  0
  7 23  1  0  0  0
  7 24  1  0  0  0
  8  9  1  0  0  0
  8 13  1  0  0  0
  8 25  1  0  0  0
  9 10  1  0  0  0
  9 11  1  0  0  0
  9 12  1  0  0  0
 13 14  1  0  0  0
 13 26  1  0  0  0
 13 27  1  0  0  0
 14 15  1  0  0  0
 14 28  1  0  0  0
 14 29  1  0  0  0
 15 16  1  0  0  0
 15 17  1  0  0  0
 15 18  1  0  0  0
M  END
