C:\Mis documentos\Gara\Polímeros (Tg)\Base de datos polímeros\079 trimer poly(4-methyl-1-pentene).hin
 OpenBabel04231222153D

 56 55  0  0  0  0  0  0  0  0999 V2000
    7.2099   -3.6772    6.5953 C   0  0  0  0  0
    7.5091   -2.4267    5.7878 C   0  0  0  0  0
    8.9839   -2.4196    5.4014 C   0  0  0  0  0
    9.5031   -1.0533    4.9679 C   0  0  0  0  0
   10.8731   -0.7903    5.5624 C   0  0  0  0  0
    9.5706   -0.9416    3.4582 C   0  0  0  0  0
    6.5825   -2.3583    4.5787 C   0  0  0  0  0
    6.0377   -0.9578    4.3056 C   0  0  0  0  0
    5.3116   -0.9642    2.9630 C   0  0  0  0  0
    5.2456    0.3990    2.2849 C   0  0  0  0  0
    5.1566    0.2227    0.7805 C   0  0  0  0  0
    4.0715    1.2226    2.7714 C   0  0  0  0  0
    5.2852    2.3976    7.9992 C   0  0  0  0  0
    4.5230    2.5717    9.2974 C   0  0  0  0  0
    4.7291    1.2126    7.2226 C   0  0  0  0  0
    5.1316   -0.4936    5.4429 C   0  0  0  0  0
    5.6626    0.7529    6.1231 C   0  0  0  0  0
    5.2249    3.6724    7.1843 C   0  0  0  0  0
    6.1440   -3.6760    6.9291 H   0  0  0  0  0
    7.3895   -4.5922    5.9817 H   0  0  0  0  0
    7.8618   -3.7242    7.5006 H   0  0  0  0  0
    7.3140   -1.5353    6.4500 H   0  0  0  0  0
    9.5758   -2.7661    6.2922 H   0  0  0  0  0
    9.1602   -3.1694    4.5861 H   0  0  0  0  0
    8.8014   -0.2577    5.3513 H   0  0  0  0  0
   11.2572    0.2020    5.2236 H   0  0  0  0  0
   10.8222   -0.7885    6.6777 H   0  0  0  0  0
   11.5973   -1.5774    5.2422 H   0  0  0  0  0
    9.8957    0.0844    3.1607 H   0  0  0  0  0
   10.3011   -1.6770    3.0426 H   0  0  0  0  0
    8.5690   -1.1430    3.0060 H   0  0  0  0  0
    5.7118   -3.0514    4.7281 H   0  0  0  0  0
    7.1338   -2.7228    3.6713 H   0  0  0  0  0
    6.9179   -0.2573    4.2275 H   0  0  0  0  0
    5.8515   -1.6692    2.2727 H   0  0  0  0  0
    4.2751   -1.3706    3.0948 H   0  0  0  0  0
    6.1936    0.9637    2.5154 H   0  0  0  0  0
    5.0948    1.2172    0.2766 H   0  0  0  0  0
    6.0565   -0.3135    0.3941 H   0  0  0  0  0
    4.2487   -0.3681    0.5100 H   0  0  0  0  0
    4.0030    2.1759    2.1931 H   0  0  0  0  0
    3.1150    0.6617    2.6404 H   0  0  0  0  0
    4.1900    1.4756    3.8528 H   0  0  0  0  0
    6.3640    2.1853    8.2477 H   0  0  0  0  0
    4.9235    3.4437    9.8682 H   0  0  0  0  0
    3.4396    2.7494    9.0941 H   0  0  0  0  0
    4.6185    1.6583    9.9324 H   0  0  0  0  0
    4.5516    0.3614    7.9329 H   0  0  0  0  0
    3.7357    1.4889    6.7808 H   0  0  0  0  0
    5.0283   -1.3101    6.2073 H   0  0  0  0  0
    4.0984   -0.2891    5.0550 H   0  0  0  0  0
    6.6790    0.5447    6.5520 H   0  0  0  0  0
    5.7881    1.5711    5.3652 H   0  0  0  0  0
    5.8216    3.5672    6.2466 H   0  0  0  0  0
    4.1700    3.9125    6.9076 H   0  0  0  0  0
    5.6385    4.5269    7.7726 H   0  0  0  0  0
  1  2  1  0  0  0
  1 19  1  0  0  0
  1 20  1  0  0  0
  1 21  1  0  0  0
  2  3  1  0  0  0
  2  7  1  0  0  0
  2 22  1  0  0  0
  3  4  1  0  0  0
  3 23  1  0  0  0
  3 24  1  0  0  0
  4  5  1  0  0  0
  4  6  1  0  0  0
  4 25  1  0  0  0
  5 26  1  0  0  0
  5 27  1  0  0  0
  5 28  1  0  0  0
  6 29  1  0  0  0
  6 30  1  0  0  0
  6 31  1  0  0  0
  7  8  1  0  0  0
  7 32  1  0  0  0
  7 33  1  0  0  0
  8  9  1  0  0  0
  8 16  1  0  0  0
  8 34  1  0  0  0
  9 10  1  0  0  0
  9 35  1  0  0  0
  9 36  1  0  0  0
 10 11  1  0  0  0
 10 12  1  0  0  0
 10 37  1  0  0  0
 11 38  1  0  0  0
 11 39  1  0  0  0
 11 40  1  0  0  0
 12 41  1  0  0  0
 12 42  1  0  0  0
 12 43  1  0  0  0
 13 14  1  0  0  0
 13 15  1  0  0  0
 13 18  1  0  0  0
 13 44  1  0  0  0
 14 45  1  0  0  0
 14 46  1  0  0  0
 14 47  1  0  0  0
 15 17  1  0  0  0
 15 48  1  0  0  0
 15 49  1  0  0  0
 16 17  1  0  0  0
 16 50  1  0  0  0
 16 51  1  0  0  0
 17 52  1  0  0  0
 17 53  1  0  0  0
 18 54  1  0  0  0
 18 55  1  0  0  0
 18 56  1  0  0  0
M  END
