C:\Mis documentos\Gara\Polímeros (Tg)\Base de datos polímeros\080 trimer poly(vinyl chloroacetate).hin
 OpenBabel04231222153D

 38 37  0  0  0  0  0  0  0  0999 V2000
   -2.4623   -4.7293   -0.1224 C   0  0  0  0  0
   -2.4901   -3.2155   -0.2235 C   0  0  0  0  0
   -3.8006   -2.8058    0.2348 O   0  0  0  0  0
   -4.5386   -1.9715   -0.5544 C   0  0  0  0  0
   -5.9351   -1.7852   -0.0390 C   0  0  0  0  0
   -6.0956   -0.2390    0.7554 Cl  0  0  0  0  0
   -4.0302   -1.4750   -1.5589 O   0  0  0  0  0
   -1.4449   -2.5858    0.6871 C   0  0  0  0  0
   -1.3137   -1.0827    0.4583 C   0  0  0  0  0
   -0.7399   -0.4649    1.6198 O   0  0  0  0  0
   -1.5334   -0.1655    2.7028 C   0  0  0  0  0
   -0.8726    0.3076    3.6251 O   0  0  0  0  0
   -3.0143   -0.3771    2.6373 C   0  0  0  0  0
   -3.7842   -0.3278    4.1979 Cl  0  0  0  0  0
   -0.3413   -0.7859   -0.6798 C   0  0  0  0  0
   -0.3311    0.6974   -1.0067 C   0  0  0  0  0
    0.5671    0.8429   -2.1107 O   0  0  0  0  0
    0.8719    2.1163   -2.5321 C   0  0  0  0  0
    1.6285    2.1128   -3.4995 O   0  0  0  0  0
    0.2918    3.2827   -1.7935 C   0  0  0  0  0
    0.6145    4.8164   -2.5497 Cl  0  0  0  0  0
   -1.4666   -5.1037   -0.4599 H   0  0  0  0  0
   -2.6382   -5.0550    0.9306 H   0  0  0  0  0
   -3.2573   -5.1721   -0.7684 H   0  0  0  0  0
   -2.3335   -2.8866   -1.2890 H   0  0  0  0  0
   -6.6467   -1.8013   -0.9018 H   0  0  0  0  0
   -6.1964   -2.5778    0.7046 H   0  0  0  0  0
   -0.4579   -3.0829    0.4944 H   0  0  0  0  0
   -1.7115   -2.7822    1.7590 H   0  0  0  0  0
   -2.3203   -0.6313    0.2319 H   0  0  0  0  0
   -3.4703    0.4368    2.0168 H   0  0  0  0  0
   -3.2579   -1.3739    2.1866 H   0  0  0  0  0
   -0.6532   -1.3712   -1.5836 H   0  0  0  0  0
    0.6931   -1.1086   -0.3917 H   0  0  0  0  0
   -1.3511    1.0508   -1.3128 H   0  0  0  0  0
    0.0339    1.2891   -0.1264 H   0  0  0  0  0
   -0.8203    3.1777   -1.7290 H   0  0  0  0  0
    0.7310    3.3221   -0.7640 H   0  0  0  0  0
  1  2  1  0  0  0
  1 22  1  0  0  0
  1 23  1  0  0  0
  1 24  1  0  0  0
  2  3  1  0  0  0
  2  8  1  0  0  0
  2 25  1  0  0  0
  3  4  1  0  0  0
  4  5  1  0  0  0
  4  7  2  0  0  0
  5  6  1  0  0  0
  5 26  1  0  0  0
  5 27  1  0  0  0
  8  9  1  0  0  0
  8 28  1  0  0  0
  8 29  1  0  0  0
  9 10  1  0  0  0
  9 15  1  0  0  0
  9 30  1  0  0  0
 10 11  1  0  0  0
 11 12  2  0  0  0
 11 13  1  0  0  0
 13 14  1  0  0  0
 13 31  1  0  0  0
 13 32  1  0  0  0
 15 16  1  0  0  0
 15 33  1  0  0  0
 15 34  1  0  0  0
 16 17  1  0  0  0
 16 35  1  0  0  0
 16 36  1  0  0  0
 17 18  1  0  0  0
 18 19  2  0  0  0
 18 20  1  0  0  0
 20 21  1  0  0  0
 20 37  1  0  0  0
 20 38  1  0  0  0
M  END
