C:\Mis documentos\Gara\Polímeros (Tg)\Base de datos polímeros\081 trimer poly(n-propyl methacrylate).hin
 OpenBabel04231222163D

 65 64  0  0  0  0  0  0  0  0999 V2000
   -1.6053   -3.4117    0.7916 C   0  0  0  0  0
   -1.5415   -1.8857    0.9005 C   0  0  0  0  0
   -2.7656   -1.3936    1.6510 C   0  0  0  0  0
   -0.2597   -1.5641    1.6458 C   0  0  0  0  0
   -0.4519   -1.0797    2.9090 O   0  0  0  0  0
    0.8967   -1.7261    1.2475 O   0  0  0  0  0
    0.7088   -0.7748    3.6949 C   0  0  0  0  0
    1.2713    0.5821    3.3173 C   0  0  0  0  0
    2.3754    0.9842    4.2581 C   0  0  0  0  0
   -1.4618   -1.3203   -0.5209 C   0  0  0  0  0
   -1.6175    0.1925   -0.7224 C   0  0  0  0  0
   -1.3695    0.4840   -2.2021 C   0  0  0  0  0
   -3.0368    0.6239   -0.4064 C   0  0  0  0  0
   -3.4249    1.5146    0.3535 O   0  0  0  0  0
   -3.9821   -0.0776   -1.1043 O   0  0  0  0  0
   -5.3545    0.2849   -0.8677 C   0  0  0  0  0
   -6.1847   -0.5901   -1.7880 C   0  0  0  0  0
   -7.6513   -0.3006   -1.6042 C   0  0  0  0  0
   -0.6205    0.9545    0.1501 C   0  0  0  0  0
   -0.5204    2.4452   -0.1374 C   0  0  0  0  0
    0.0746    3.1704    1.0557 C   0  0  0  0  0
    0.3141    2.7421   -1.3572 C   0  0  0  0  0
    0.0408    3.5073   -2.2855 O   0  0  0  0  0
    1.5120    2.0850   -1.3954 O   0  0  0  0  0
    2.3439    2.3320   -2.5429 C   0  0  0  0  0
    3.5403    1.4099   -2.4014 C   0  0  0  0  0
    4.4615    1.5620   -3.5833 C   0  0  0  0  0
   -0.7218   -3.7956    0.2270 H   0  0  0  0  0
   -1.6106   -3.8696    1.8095 H   0  0  0  0  0
   -2.5389   -3.7112    0.2586 H   0  0  0  0  0
   -2.6588   -0.3149    1.9242 H   0  0  0  0  0
   -3.6747   -1.5153    1.0121 H   0  0  0  0  0
   -2.8979   -1.9769    2.5941 H   0  0  0  0  0
    0.3074   -0.7765    4.7440 H   0  0  0  0  0
    1.4799   -1.5786    3.5698 H   0  0  0  0  0
    1.6544    0.5349    2.2621 H   0  0  0  0  0
    0.4486    1.3457    3.3350 H   0  0  0  0  0
    2.7858    1.9806    3.9648 H   0  0  0  0  0
    1.9970    1.0535    5.3068 H   0  0  0  0  0
    3.2072    0.2390    4.2325 H   0  0  0  0  0
   -2.2642   -1.8231   -1.1279 H   0  0  0  0  0
   -0.4644   -1.6160   -0.9493 H   0  0  0  0  0
   -1.6409    1.5412   -2.4430 H   0  0  0  0  0
   -0.2881    0.3322   -2.4385 H   0  0  0  0  0
   -1.9875   -0.1949   -2.8372 H   0  0  0  0  0
   -5.5916    0.0996    0.2123 H   0  0  0  0  0
   -5.4887    1.3746   -1.0934 H   0  0  0  0  0
   -5.8817   -0.4025   -2.8513 H   0  0  0  0  0
   -5.9709   -1.6687   -1.5682 H   0  0  0  0  0
   -8.2568   -0.9472   -2.2842 H   0  0  0  0  0
   -7.9664   -0.5024   -0.5517 H   0  0  0  0  0
   -7.8766    0.7678   -1.8393 H   0  0  0  0  0
    0.3924    0.4809    0.0257 H   0  0  0  0  0
   -0.9240    0.8288    1.2272 H   0  0  0  0  0
   -1.5534    2.8565   -0.3379 H   0  0  0  0  0
    0.2124    4.2534    0.8227 H   0  0  0  0  0
   -0.6115    3.0774    1.9323 H   0  0  0  0  0
    1.0647    2.7281    1.3256 H   0  0  0  0  0
    1.7568    2.1127   -3.4726 H   0  0  0  0  0
    2.6436    3.4117   -2.5433 H   0  0  0  0  0
    4.0840    1.6494   -1.4505 H   0  0  0  0  0
    3.1841    0.3496   -2.3197 H   0  0  0  0  0
    5.3389    0.8798   -3.4747 H   0  0  0  0  0
    3.9321    1.3078   -4.5335 H   0  0  0  0  0
    4.8369    2.6111   -3.6609 H   0  0  0  0  0
  1  2  1  0  0  0
  1 28  1  0  0  0
  1 29  1  0  0  0
  1 30  1  0  0  0
  2  3  1  0  0  0
  2  4  1  0  0  0
  2 10  1  0  0  0
  3 31  1  0  0  0
  3 32  1  0  0  0
  3 33  1  0  0  0
  4  5  1  0  0  0
  4  6  2  0  0  0
  5  7  1  0  0  0
  7  8  1  0  0  0
  7 34  1  0  0  0
  7 35  1  0  0  0
  8  9  1  0  0  0
  8 36  1  0  0  0
  8 37  1  0  0  0
  9 38  1  0  0  0
  9 39  1  0  0  0
  9 40  1  0  0  0
 10 11  1  0  0  0
 10 41  1  0  0  0
 10 42  1  0  0  0
 11 12  1  0  0  0
 11 13  1  0  0  0
 11 19  1  0  0  0
 12 43  1  0  0  0
 12 44  1  0  0  0
 12 45  1  0  0  0
 13 14  2  0  0  0
 13 15  1  0  0  0
 15 16  1  0  0  0
 16 17  1  0  0  0
 16 46  1  0  0  0
 16 47  1  0  0  0
 17 18  1  0  0  0
 17 48  1  0  0  0
 17 49  1  0  0  0
 18 50  1  0  0  0
 18 51  1  0  0  0
 18 52  1  0  0  0
 19 20  1  0  0  0
 19 53  1  0  0  0
 19 54  1  0  0  0
 20 21  1  0  0  0
 20 22  1  0  0  0
 20 55  1  0  0  0
 21 56  1  0  0  0
 21 57  1  0  0  0
 21 58  1  0  0  0
 22 23  2  0  0  0
 22 24  1  0  0  0
 24 25  1  0  0  0
 25 26  1  0  0  0
 25 59  1  0  0  0
 25 60  1  0  0  0
 26 27  1  0  0  0
 26 61  1  0  0  0
 26 62  1  0  0  0
 27 63  1  0  0  0
 27 64  1  0  0  0
 27 65  1  0  0  0
M  END
