C:\Mis documentos\Gara\Polímeros (Tg)\Base de datos polímeros\082 trimer poly(3-cyclopentyl-1-propene).hin
 OpenBabel04231222163D

 68 70  0  0  0  0  0  0  0  0999 V2000
   -3.1839    0.2648    3.5708 C   0  0  0  0  0
   -2.2081    0.9514    2.6331 C   0  0  0  0  0
   -0.8753    1.1541    3.3537 C   0  0  0  0  0
   -0.2200    2.5073    3.1561 C   0  0  0  0  0
   -1.0212    3.6620    3.7596 C   0  0  0  0  0
   -0.8729    4.8562    2.8260 C   0  0  0  0  0
   -0.0985    4.3913    1.5993 C   0  0  0  0  0
    0.0424    2.8789    1.6986 C   0  0  0  0  0
   -2.0309    0.1504    1.3428 C   0  0  0  0  0
   -2.7682    0.7391    0.1479 C   0  0  0  0  0
   -4.2720    0.4975    0.1719 C   0  0  0  0  0
   -4.7796   -0.8675   -0.2484 C   0  0  0  0  0
   -6.2814   -0.8134   -0.5532 C   0  0  0  0  0
   -6.8597   -2.1698   -0.1781 C   0  0  0  0  0
   -5.8368   -2.8692    0.7075 C   0  0  0  0  0
   -4.6159   -1.9630    0.8047 C   0  0  0  0  0
   -1.5469   -1.0526   -1.2343 C   0  0  0  0  0
   -1.1692   -1.4684   -2.6433 C   0  0  0  0  0
    0.2355   -1.0600   -3.0438 C   0  0  0  0  0
    0.3841    0.4326   -3.3385 C   0  0  0  0  0
    1.3726    0.5673   -4.4893 C   0  0  0  0  0
    1.5859   -0.8215   -5.0780 C   0  0  0  0  0
    0.6838   -1.7823   -4.3167 C   0  0  0  0  0
   -2.1214    0.3475   -1.1763 C   0  0  0  0  0
   -4.1826    0.1452    3.0872 H   0  0  0  0  0
   -2.8078   -0.7464    3.8588 H   0  0  0  0  0
   -3.3183    0.8710    4.4997 H   0  0  0  0  0
   -2.6329    1.9631    2.3755 H   0  0  0  0  0
   -0.1503    0.3585    3.0348 H   0  0  0  0  0
   -1.0314    1.0207    4.4594 H   0  0  0  0  0
    0.7754    2.4649    3.6852 H   0  0  0  0  0
   -0.6397    3.9054    4.7823 H   0  0  0  0  0
   -2.0995    3.3821    3.8685 H   0  0  0  0  0
   -0.3315    5.6913    3.3368 H   0  0  0  0  0
   -1.8789    5.2464    2.5303 H   0  0  0  0  0
    0.9111    4.8738    1.5734 H   0  0  0  0  0
   -0.6288    4.6795    0.6583 H   0  0  0  0  0
    1.0616    2.5466    1.3826 H   0  0  0  0  0
   -0.6979    2.3766    1.0247 H   0  0  0  0  0
   -0.9366    0.1171    1.0871 H   0  0  0  0  0
   -2.3616   -0.9091    1.5014 H   0  0  0  0  0
   -2.6568    1.8660    0.2160 H   0  0  0  0  0
   -4.6498    0.7307    1.2031 H   0  0  0  0  0
   -4.7367    1.2511   -0.5246 H   0  0  0  0  0
   -4.2441   -1.1828   -1.1862 H   0  0  0  0  0
   -6.4572   -0.5809   -1.6317 H   0  0  0  0  0
   -6.7706   -0.0065    0.0496 H   0  0  0  0  0
   -7.0574   -2.7770   -1.0971 H   0  0  0  0  0
   -7.8347   -2.0497    0.3560 H   0  0  0  0  0
   -5.5554   -3.8597    0.2696 H   0  0  0  0  0
   -6.2604   -3.0654    1.7239 H   0  0  0  0  0
   -3.6765   -2.5449    0.6321 H   0  0  0  0  0
   -4.5493   -1.5150    1.8291 H   0  0  0  0  0
   -0.6435   -1.1213   -0.5720 H   0  0  0  0  0
   -2.2982   -1.7821   -0.8298 H   0  0  0  0  0
   -1.2352   -2.5885   -2.7105 H   0  0  0  0  0
   -1.9077   -1.0523   -3.3779 H   0  0  0  0  0
    0.9407   -1.3331   -2.2107 H   0  0  0  0  0
    0.7467    0.9795   -2.4333 H   0  0  0  0  0
   -0.6053    0.8731   -3.6231 H   0  0  0  0  0
    2.3431    0.9879   -4.1240 H   0  0  0  0  0
    0.9783    1.2705   -5.2644 H   0  0  0  0  0
    2.6574   -1.1270   -4.9729 H   0  0  0  0  0
    1.3434   -0.8335   -6.1695 H   0  0  0  0  0
    1.2204   -2.7296   -4.0659 H   0  0  0  0  0
   -0.2049   -2.0542   -4.9411 H   0  0  0  0  0
   -2.8789    0.4745   -1.9957 H   0  0  0  0  0
   -1.2891    1.0740   -1.3865 H   0  0  0  0  0
  1  2  1  0  0  0
  1 25  1  0  0  0
  1 26  1  0  0  0
  1 27  1  0  0  0
  2  3  1  0  0  0
  2  9  1  0  0  0
  2 28  1  0  0  0
  3  4  1  0  0  0
  3 29  1  0  0  0
  3 30  1  0  0  0
  4  5  1  0  0  0
  4  8  1  0  0  0
  4 31  1  0  0  0
  5  6  1  0  0  0
  5 32  1  0  0  0
  5 33  1  0  0  0
  6  7  1  0  0  0
  6 34  1  0  0  0
  6 35  1  0  0  0
  7  8  1  0  0  0
  7 36  1  0  0  0
  7 37  1  0  0  0
  8 38  1  0  0  0
  8 39  1  0  0  0
  9 10  1  0  0  0
  9 40  1  0  0  0
  9 41  1  0  0  0
 10 11  1  0  0  0
 10 24  1  0  0  0
 10 42  1  0  0  0
 11 12  1  0  0  0
 11 43  1  0  0  0
 11 44  1  0  0  0
 12 13  1  0  0  0
 12 16  1  0  0  0
 12 45  1  0  0  0
 13 14  1  0  0  0
 13 46  1  0  0  0
 13 47  1  0  0  0
 14 15  1  0  0  0
 14 48  1  0  0  0
 14 49  1  0  0  0
 15 16  1  0  0  0
 15 50  1  0  0  0
 15 51  1  0  0  0
 16 52  1  0  0  0
 16 53  1  0  0  0
 17 18  1  0  0  0
 17 24  1  0  0  0
 17 54  1  0  0  0
 17 55  1  0  0  0
 18 19  1  0  0  0
 18 56  1  0  0  0
 18 57  1  0  0  0
 19 20  1  0  0  0
 19 23  1  0  0  0
 19 58  1  0  0  0
 20 21  1  0  0  0
 20 59  1  0  0  0
 20 60  1  0  0  0
 21 22  1  0  0  0
 21 61  1  0  0  0
 21 62  1  0  0  0
 22 23  1  0  0  0
 22 63  1  0  0  0
 22 64  1  0  0  0
 23 65  1  0  0  0
 23 66  1  0  0  0
 24 67  1  0  0  0
 24 68  1  0  0  0
M  END
