C:\Mis documentos\Gara\Polímeros (Tg)\Base de datos polímeros\083 trimer poly(3-phenyl-1-propene).hin
 OpenBabel04231222173D

 59 61  0  0  0  0  0  0  0  0999 V2000
   -7.1676   -1.7424   -0.8455 C   0  0  0  0  0
   -5.9714   -0.8848   -0.4796 C   0  0  0  0  0
   -6.3979    0.5745   -0.3100 C   0  0  0  0  0
   -5.5323    1.5247   -1.0625 C   0  0  0  0  0
   -4.7719    2.4858   -0.3869 C   0  0  0  0  0
   -3.9825    3.3879   -1.0996 C   0  0  0  0  0
   -3.9449    3.3378   -2.4923 C   0  0  0  0  0
   -4.7003    2.3819   -3.1723 C   0  0  0  0  0
   -5.4903    1.4807   -2.4621 C   0  0  0  0  0
   -5.3211   -1.4337    0.7840 C   0  0  0  0  0
   -3.9313   -0.8570    1.0383 C   0  0  0  0  0
   -3.6053   -0.9801    2.5253 C   0  0  0  0  0
   -2.4467   -0.1537    2.9611 C   0  0  0  0  0
   -1.2912   -0.7615    3.4666 C   0  0  0  0  0
   -0.2238    0.0157    3.9144 C   0  0  0  0  0
   -0.2994    1.4069    3.8616 C   0  0  0  0  0
   -1.4477    2.0197    3.3593 C   0  0  0  0  0
   -2.5159    1.2448    2.9127 C   0  0  0  0  0
   -1.7555   -0.6532   -0.2247 C   0  0  0  0  0
   -0.7270   -1.3982   -1.0555 C   0  0  0  0  0
    0.3703   -0.4973   -1.5031 C   0  0  0  0  0
    0.2749    0.1809   -2.7241 C   0  0  0  0  0
    1.3034    1.0227   -3.1439 C   0  0  0  0  0
    2.4360    1.1951   -2.3485 C   0  0  0  0  0
    2.5368    0.5226   -1.1308 C   0  0  0  0  0
    1.5095   -0.3198   -0.7092 C   0  0  0  0  0
   -2.8970   -1.5658    0.1709 C   0  0  0  0  0
   -6.8541   -2.8035   -0.9963 H   0  0  0  0  0
   -7.9356   -1.7125   -0.0357 H   0  0  0  0  0
   -7.6340   -1.3747   -1.7913 H   0  0  0  0  0
   -5.2256   -0.9480   -1.3223 H   0  0  0  0  0
   -7.4543    0.7014   -0.6753 H   0  0  0  0  0
   -6.3996    0.8439    0.7802 H   0  0  0  0  0
   -4.7946    2.5293    0.7127 H   0  0  0  0  0
   -3.3867    4.1387   -0.5600 H   0  0  0  0  0
   -3.3208    4.0484   -3.0530 H   0  0  0  0  0
   -4.6730    2.3396   -4.2709 H   0  0  0  0  0
   -6.0866    0.7271   -2.9982 H   0  0  0  0  0
   -5.2437   -2.5505    0.7028 H   0  0  0  0  0
   -5.9915   -1.2153    1.6573 H   0  0  0  0  0
   -3.9479    0.2379    0.7660 H   0  0  0  0  0
   -4.5024   -0.6531    3.1213 H   0  0  0  0  0
   -3.4234   -2.0603    2.7722 H   0  0  0  0  0
   -1.2255   -1.8588    3.5106 H   0  0  0  0  0
    0.6792   -0.4714    4.3105 H   0  0  0  0  0
    0.5428    2.0192    4.2143 H   0  0  0  0  0
   -1.5103    3.1169    3.3154 H   0  0  0  0  0
   -3.4205    1.7308    2.5168 H   0  0  0  0  0
   -1.2680   -0.2382    0.6975 H   0  0  0  0  0
   -2.1518    0.2156   -0.8134 H   0  0  0  0  0
   -0.3008   -2.2426   -0.4501 H   0  0  0  0  0
   -1.2309   -1.8532   -1.9505 H   0  0  0  0  0
   -0.6184    0.0486   -3.3524 H   0  0  0  0  0
    1.2204    1.5519   -4.1044 H   0  0  0  0  0
    3.2469    1.8591   -2.6804 H   0  0  0  0  0
    3.4281    0.6570   -0.5007 H   0  0  0  0  0
    1.5900   -0.8466    0.2532 H   0  0  0  0  0
   -3.3904   -1.9501   -0.7620 H   0  0  0  0  0
   -2.4936   -2.4591    0.7169 H   0  0  0  0  0
  1  2  1  0  0  0
  1 28  1  0  0  0
  1 29  1  0  0  0
  1 30  1  0  0  0
  2  3  1  0  0  0
  2 10  1  0  0  0
  2 31  1  0  0  0
  3  4  1  0  0  0
  3 32  1  0  0  0
  3 33  1  0  0  0
  4  5  2  0  0  0
  4  9  1  0  0  0
  5  6  1  0  0  0
  5 34  1  0  0  0
  6  7  2  0  0  0
  6 35  1  0  0  0
  7  8  1  0  0  0
  7 36  1  0  0  0
  8  9  2  0  0  0
  8 37  1  0  0  0
  9 38  1  0  0  0
 10 11  1  0  0  0
 10 39  1  0  0  0
 10 40  1  0  0  0
 11 12  1  0  0  0
 11 27  1  0  0  0
 11 41  1  0  0  0
 12 13  1  0  0  0
 12 42  1  0  0  0
 12 43  1  0  0  0
 13 14  2  0  0  0
 13 18  1  0  0  0
 14 15  1  0  0  0
 14 44  1  0  0  0
 15 16  2  0  0  0
 15 45  1  0  0  0
 16 17  1  0  0  0
 16 46  1  0  0  0
 17 18  2  0  0  0
 17 47  1  0  0  0
 18 48  1  0  0  0
 19 20  1  0  0  0
 19 27  1  0  0  0
 19 49  1  0  0  0
 19 50  1  0  0  0
 20 21  1  0  0  0
 20 51  1  0  0  0
 20 52  1  0  0  0
 21 22  2  0  0  0
 21 26  1  0  0  0
 22 23  1  0  0  0
 22 53  1  0  0  0
 23 24  2  0  0  0
 23 54  1  0  0  0
 24 25  1  0  0  0
 24 55  1  0  0  0
 25 26  2  0  0  0
 25 56  1  0  0  0
 26 57  1  0  0  0
 27 58  1  0  0  0
 27 59  1  0  0  0
M  END
