C:\Mis documentos\Gara\Polímeros (Tg)\Base de datos polímeros\084 trimer poly(n-propyl a-chloroacrylate).hin
 OpenBabel04231222173D

 56 55  0  0  0  0  0  0  0  0999 V2000
   -1.9280   -2.8554    1.4016 C   0  0  0  0  0
   -1.7413   -1.3448    1.2921 C   0  0  0  0  0
   -3.1346   -0.5577    2.0553 Cl  0  0  0  0  0
   -0.4739   -0.9781    2.0473 C   0  0  0  0  0
   -0.3376   -0.3098    3.0701 O   0  0  0  0  0
    0.6392   -1.5216    1.4646 O   0  0  0  0  0
    1.9083   -1.2770    2.0920 C   0  0  0  0  0
    2.1136   -2.2038    3.2744 C   0  0  0  0  0
    3.5030   -2.0537    3.8352 C   0  0  0  0  0
   -1.6333   -0.9717   -0.1871 C   0  0  0  0  0
   -1.7188    0.5087   -0.5645 C   0  0  0  0  0
   -1.2442    0.6180   -2.2845 Cl  0  0  0  0  0
   -3.1440    1.0287   -0.5045 C   0  0  0  0  0
   -3.5260    2.1262   -0.0959 O   0  0  0  0  0
   -4.0660    0.1602   -1.0099 O   0  0  0  0  0
   -5.4342    0.6168   -1.0172 C   0  0  0  0  0
   -6.2395   -0.4986   -1.6561 C   0  0  0  0  0
   -7.6982   -0.1261   -1.7076 C   0  0  0  0  0
   -0.7821    1.3551    0.2929 C   0  0  0  0  0
   -0.5944    2.7859   -0.1776 C   0  0  0  0  0
   -0.0717    3.7972    1.1715 Cl  0  0  0  0  0
    0.4192    2.9440   -1.2816 C   0  0  0  0  0
    0.3313    3.6872   -2.2596 O   0  0  0  0  0
    1.5461    2.1882   -1.1292 O   0  0  0  0  0
    2.5522    2.3390   -2.1493 C   0  0  0  0  0
    3.6721    1.3855   -1.7789 C   0  0  0  0  0
    4.7829    1.4661   -2.7932 C   0  0  0  0  0
   -1.0561   -3.3710    0.9286 H   0  0  0  0  0
   -1.9923   -3.1632    2.4731 H   0  0  0  0  0
   -2.8648   -3.1679    0.8808 H   0  0  0  0  0
    2.6367   -1.4944    1.2649 H   0  0  0  0  0
    1.9779   -0.2022    2.4031 H   0  0  0  0  0
    1.3509   -1.9622    4.0621 H   0  0  0  0  0
    1.9403   -3.2637    2.9517 H   0  0  0  0  0
    3.6381   -2.7342    4.7104 H   0  0  0  0  0
    4.2715   -2.3109    3.0666 H   0  0  0  0  0
    3.6809   -1.0043    4.1743 H   0  0  0  0  0
   -2.4486   -1.5152   -0.7420 H   0  0  0  0  0
   -0.6440   -1.3722   -0.5495 H   0  0  0  0  0
   -5.7513    0.8132    0.0397 H   0  0  0  0  0
   -5.4937    1.5684   -1.6065 H   0  0  0  0  0
   -5.8508   -0.6920   -2.6901 H   0  0  0  0  0
   -6.1003   -1.4424   -1.0669 H   0  0  0  0  0
   -8.2857   -0.9498   -2.1805 H   0  0  0  0  0
   -8.0994    0.0492   -0.6800 H   0  0  0  0  0
   -7.8488    0.8043   -2.3071 H   0  0  0  0  0
    0.2180    0.8413    0.3451 H   0  0  0  0  0
   -1.2143    1.3770    1.3354 H   0  0  0  0  0
   -1.5717    3.2248   -0.5260 H   0  0  0  0  0
    2.1000    2.0870   -3.1436 H   0  0  0  0  0
    2.8960    3.4058   -2.1591 H   0  0  0  0  0
    4.0578    1.6438   -0.7582 H   0  0  0  0  0
    3.2685    0.3406   -1.7273 H   0  0  0  0  0
    5.6038    0.7605   -2.5189 H   0  0  0  0  0
    4.4101    1.1960   -3.8110 H   0  0  0  0  0
    5.2050    2.4994   -2.8370 H   0  0  0  0  0
  1  2  1  0  0  0
  1 28  1  0  0  0
  1 29  1  0  0  0
  1 30  1  0  0  0
  2  3  1  0  0  0
  2  4  1  0  0  0
  2 10  1  0  0  0
  4  5  2  0  0  0
  4  6  1  0  0  0
  6  7  1  0  0  0
  7  8  1  0  0  0
  7 31  1  0  0  0
  7 32  1  0  0  0
  8  9  1  0  0  0
  8 33  1  0  0  0
  8 34  1  0  0  0
  9 35  1  0  0  0
  9 36  1  0  0  0
  9 37  1  0  0  0
 10 11  1  0  0  0
 10 38  1  0  0  0
 10 39  1  0  0  0
 11 12  1  0  0  0
 11 13  1  0  0  0
 11 19  1  0  0  0
 13 14  2  0  0  0
 13 15  1  0  0  0
 15 16  1  0  0  0
 16 17  1  0  0  0
 16 40  1  0  0  0
 16 41  1  0  0  0
 17 18  1  0  0  0
 17 42  1  0  0  0
 17 43  1  0  0  0
 18 44  1  0  0  0
 18 45  1  0  0  0
 18 46  1  0  0  0
 19 20  1  0  0  0
 19 47  1  0  0  0
 19 48  1  0  0  0
 20 21  1  0  0  0
 20 22  1  0  0  0
 20 49  1  0  0  0
 22 23  2  0  0  0
 22 24  1  0  0  0
 24 25  1  0  0  0
 25 26  1  0  0  0
 25 50  1  0  0  0
 25 51  1  0  0  0
 26 27  1  0  0  0
 26 52  1  0  0  0
 26 53  1  0  0  0
 27 54  1  0  0  0
 27 55  1  0  0  0
 27 56  1  0  0  0
M  END
