C:\Mis documentos\Gara\Polímeros (Tg)\Base de datos polímeros\085 trimer poly(sec-butyl a-chloroacrylate).hin
 OpenBabel04231222183D

 65 64  0  0  0  0  0  0  0  0999 V2000
   -3.0188   -3.1429    1.4662 C   0  0  0  0  0
   -2.9118   -1.6277    1.3206 C   0  0  0  0  0
   -4.3460   -0.8926    2.0605 Cl  0  0  0  0  0
   -1.6694   -1.1836    2.0776 C   0  0  0  0  0
   -1.5847   -0.6212    3.1678 O   0  0  0  0  0
   -0.5240   -1.5232    1.4150 O   0  0  0  0  0
    0.7410   -1.1088    1.9892 C   0  0  0  0  0
    1.2366   -2.2111    2.9158 C   0  0  0  0  0
    2.3980   -1.7508    3.7568 C   0  0  0  0  0
    1.6493   -0.8755    0.7980 C   0  0  0  0  0
   -2.8238   -1.2840   -0.1667 C   0  0  0  0  0
   -2.9497    0.1846   -0.5772 C   0  0  0  0  0
   -2.4459    0.2735   -2.2910 Cl  0  0  0  0  0
   -4.3944    0.6639   -0.5560 C   0  0  0  0  0
   -4.7982    1.7601   -0.1673 O   0  0  0  0  0
   -5.2663   -0.2486   -1.0646 O   0  0  0  0  0
   -6.6607    0.0928   -1.2217 C   0  0  0  0  0
   -7.3105    0.4139    0.1165 C   0  0  0  0  0
   -8.7903    0.1350    0.0913 C   0  0  0  0  0
   -6.8391    1.1938   -2.2444 C   0  0  0  0  0
   -2.0532    1.0800    0.2731 C   0  0  0  0  0
   -1.9018    2.5043   -0.2294 C   0  0  0  0  0
   -1.5015    3.5792    1.1124 Cl  0  0  0  0  0
   -0.8343    2.6702   -1.2831 C   0  0  0  0  0
   -0.9293    3.3353   -2.3151 O   0  0  0  0  0
    0.3357    2.0265   -1.0040 O   0  0  0  0  0
    1.4258    2.1870   -1.9454 C   0  0  0  0  0
    2.6969    2.0578   -1.1125 C   0  0  0  0  0
    3.8806    2.6523   -1.8296 C   0  0  0  0  0
    1.3095    1.1166   -3.0105 C   0  0  0  0  0
   -2.1169   -3.6223    1.0119 H   0  0  0  0  0
   -3.0759   -3.4271    2.5447 H   0  0  0  0  0
   -3.9331   -3.5178    0.9465 H   0  0  0  0  0
    0.5899   -0.1544    2.5674 H   0  0  0  0  0
    0.3867   -2.5177    3.5828 H   0  0  0  0  0
    1.5288   -3.1061    2.3076 H   0  0  0  0  0
    2.7132   -2.5677    4.4504 H   0  0  0  0  0
    3.2712   -1.4769    3.1164 H   0  0  0  0  0
    2.1155   -0.8593    4.3680 H   0  0  0  0  0
    2.6553   -0.5578    1.1620 H   0  0  0  0  0
    1.7558   -1.8088    0.1957 H   0  0  0  0  0
    1.2260   -0.0730    0.1423 H   0  0  0  0  0
   -3.6273   -1.8617   -0.7040 H   0  0  0  0  0
   -1.8262   -1.6659   -0.5270 H   0  0  0  0  0
   -7.0657   -0.8837   -1.6246 H   0  0  0  0  0
   -6.8195   -0.2075    0.9124 H   0  0  0  0  0
   -7.1219    1.4903    0.3731 H   0  0  0  0  0
   -9.2420    0.3871    1.0813 H   0  0  0  0  0
   -9.2966    0.7484   -0.6931 H   0  0  0  0  0
   -8.9897   -0.9432   -0.1221 H   0  0  0  0  0
   -7.9265    1.3238   -2.4609 H   0  0  0  0  0
   -6.4292    2.1594   -1.8600 H   0  0  0  0  0
   -6.3083    0.9311   -3.1906 H   0  0  0  0  0
   -1.0361    0.6013    0.3485 H   0  0  0  0  0
   -2.5008    1.1096    1.3083 H   0  0  0  0  0
   -2.8746    2.8898   -0.6459 H   0  0  0  0  0
    1.3634    3.2110   -2.4099 H   0  0  0  0  0
    2.5420    2.5807   -0.1315 H   0  0  0  0  0
    2.8848    0.9754   -0.8852 H   0  0  0  0  0
    4.8014    2.5334   -1.2087 H   0  0  0  0  0
    4.0484    2.1440   -2.8101 H   0  0  0  0  0
    3.7229    3.7415   -2.0211 H   0  0  0  0  0
    2.1749    1.1898   -3.7109 H   0  0  0  0  0
    1.3000    0.1013   -2.5466 H   0  0  0  0  0
    0.3609    1.2571   -3.5837 H   0  0  0  0  0
  1  2  1  0  0  0
  1 31  1  0  0  0
  1 32  1  0  0  0
  1 33  1  0  0  0
  2  3  1  0  0  0
  2  4  1  0  0  0
  2 11  1  0  0  0
  4  5  2  0  0  0
  4  6  1  0  0  0
  6  7  1  0  0  0
  7  8  1  0  0  0
  7 10  1  0  0  0
  7 34  1  0  0  0
  8  9  1  0  0  0
  8 35  1  0  0  0
  8 36  1  0  0  0
  9 37  1  0  0  0
  9 38  1  0  0  0
  9 39  1  0  0  0
 10 40  1  0  0  0
 10 41  1  0  0  0
 10 42  1  0  0  0
 11 12  1  0  0  0
 11 43  1  0  0  0
 11 44  1  0  0  0
 12 13  1  0  0  0
 12 14  1  0  0  0
 12 21  1  0  0  0
 14 15  2  0  0  0
 14 16  1  0  0  0
 16 17  1  0  0  0
 17 18  1  0  0  0
 17 20  1  0  0  0
 17 45  1  0  0  0
 18 19  1  0  0  0
 18 46  1  0  0  0
 18 47  1  0  0  0
 19 48  1  0  0  0
 19 49  1  0  0  0
 19 50  1  0  0  0
 20 51  1  0  0  0
 20 52  1  0  0  0
 20 53  1  0  0  0
 21 22  1  0  0  0
 21 54  1  0  0  0
 21 55  1  0  0  0
 22 23  1  0  0  0
 22 24  1  0  0  0
 22 56  1  0  0  0
 24 25  2  0  0  0
 24 26  1  0  0  0
 26 27  1  0  0  0
 27 28  1  0  0  0
 27 30  1  0  0  0
 27 57  1  0  0  0
 28 29  1  0  0  0
 28 58  1  0  0  0
 28 59  1  0  0  0
 29 60  1  0  0  0
 29 61  1  0  0  0
 29 62  1  0  0  0
 30 63  1  0  0  0
 30 64  1  0  0  0
 30 65  1  0  0  0
M  END
