C:\Mis documentos\Gara\Polímeros (Tg)\Base de datos polímeros\086 trimer poly(3-cyclohexyl-1-propene).hin
 OpenBabel04231222183D

 77 79  0  0  0  0  0  0  0  0999 V2000
   -3.2499   -1.7990    1.6338 C   0  0  0  0  0
   -3.8369   -0.5317    1.0508 C   0  0  0  0  0
   -4.9748    0.0100    1.9067 C   0  0  0  0  0
   -4.5625    0.4597    3.3033 C   0  0  0  0  0
   -5.1339    1.8308    3.6432 C   0  0  0  0  0
   -4.9557   -0.5528    4.3720 C   0  0  0  0  0
   -6.6282    1.7894    3.8840 C   0  0  0  0  0
   -6.9765    0.8011    4.9776 C   0  0  0  0  0
   -6.4443   -0.5786    4.6504 C   0  0  0  0  0
   -2.7534    0.5176    0.8237 C   0  0  0  0  0
   -2.0787    0.3615   -0.5355 C   0  0  0  0  0
   -2.8530    1.0840   -1.6337 C   0  0  0  0  0
   -2.4892    2.5331   -1.9233 C   0  0  0  0  0
   -3.1991    3.0077   -3.1896 C   0  0  0  0  0
   -4.6831    3.2271   -2.9812 C   0  0  0  0  0
   -4.9498    4.1795   -1.8341 C   0  0  0  0  0
   -4.2659    3.7150   -0.5649 C   0  0  0  0  0
   -2.7834    3.5025   -0.7884 C   0  0  0  0  0
   -0.6138    0.7671   -0.4934 C   0  0  0  0  0
    0.2772   -0.2377    0.2085 C   0  0  0  0  0
    0.5243   -1.5135   -0.5719 C   0  0  0  0  0
    1.2821   -1.2933   -1.8763 C   0  0  0  0  0
    2.4656   -2.2432   -2.0112 C   0  0  0  0  0
    2.0349   -3.6696   -2.2803 C   0  0  0  0  0
    1.1649   -3.7517   -3.5173 C   0  0  0  0  0
   -0.0370   -2.8387   -3.3944 C   0  0  0  0  0
    0.3719   -1.4117   -3.0930 C   0  0  0  0  0
   -4.0381   -2.5836    1.7331 H   0  0  0  0  0
   -2.4377   -2.1874    0.9717 H   0  0  0  0  0
   -2.8160   -1.6056    2.6450 H   0  0  0  0  0
   -4.2902   -0.7901    0.0485 H   0  0  0  0  0
   -5.4356    0.8752    1.3564 H   0  0  0  0  0
   -5.7648   -0.7837    1.9839 H   0  0  0  0  0
   -3.4381    0.5531    3.3263 H   0  0  0  0  0
   -4.9058    2.5476    2.8111 H   0  0  0  0  0
   -4.6234    2.2132    4.5666 H   0  0  0  0  0
   -4.4122   -0.2978    5.3203 H   0  0  0  0  0
   -4.6195   -1.5744    4.0524 H   0  0  0  0  0
   -7.1513    1.4967    2.9354 H   0  0  0  0  0
   -6.9909    2.8110    4.1691 H   0  0  0  0  0
   -8.0892    0.7551    5.1046 H   0  0  0  0  0
   -6.5402    1.1503    5.9502 H   0  0  0  0  0
   -6.9897   -0.9843    3.7577 H   0  0  0  0  0
   -6.6478   -1.2719    5.5082 H   0  0  0  0  0
   -3.2133    1.5377    0.9056 H   0  0  0  0  0
   -1.9845    0.4405    1.6371 H   0  0  0  0  0
   -2.1096   -0.7375   -0.8024 H   0  0  0  0  0
   -2.6942    0.5081   -2.5879 H   0  0  0  0  0
   -3.9481    1.0240   -1.3915 H   0  0  0  0  0
   -1.3800    2.5801   -2.1252 H   0  0  0  0  0
   -3.0445    2.2605   -4.0108 H   0  0  0  0  0
   -2.7292    3.9722   -3.5195 H   0  0  0  0  0
   -5.1830    2.2442   -2.7749 H   0  0  0  0  0
   -5.1328    3.6397   -3.9221 H   0  0  0  0  0
   -6.0542    4.2587   -1.6599 H   0  0  0  0  0
   -4.5775    5.2026   -2.1049 H   0  0  0  0  0
   -4.7381    2.7602   -0.2106 H   0  0  0  0  0
   -4.4141    4.4793    0.2422 H   0  0  0  0  0
   -2.3002    3.1397    0.1554 H   0  0  0  0  0
   -2.3114    4.4904   -1.0412 H   0  0  0  0  0
   -0.2416    0.9018   -1.5448 H   0  0  0  0  0
   -0.5220    1.7585    0.0252 H   0  0  0  0  0
    1.2641    0.2542    0.4224 H   0  0  0  0  0
   -0.1764   -0.5142    1.1980 H   0  0  0  0  0
    1.1104   -2.2102    0.0872 H   0  0  0  0  0
   -0.4553   -2.0203   -0.7790 H   0  0  0  0  0
    1.6992   -0.2445   -1.8683 H   0  0  0  0  0
    3.0845   -2.2073   -1.0771 H   0  0  0  0  0
    3.1132   -1.8898   -2.8572 H   0  0  0  0  0
    1.4655   -4.0612   -1.3963 H   0  0  0  0  0
    2.9409   -4.3162   -2.4126 H   0  0  0  0  0
    0.8218   -4.8080   -3.6685 H   0  0  0  0  0
    1.7666   -3.4604   -4.4181 H   0  0  0  0  0
   -0.7097   -3.2188   -2.5808 H   0  0  0  0  0
   -0.6240   -2.8609   -4.3498 H   0  0  0  0  0
   -0.5490   -0.7910   -2.9281 H   0  0  0  0  0
    0.9107   -0.9907   -3.9830 H   0  0  0  0  0
  1  2  1  0  0  0
  1 28  1  0  0  0
  1 29  1  0  0  0
  1 30  1  0  0  0
  2  3  1  0  0  0
  2 10  1  0  0  0
  2 31  1  0  0  0
  3  4  1  0  0  0
  3 32  1  0  0  0
  3 33  1  0  0  0
  4  5  1  0  0  0
  4  6  1  0  0  0
  4 34  1  0  0  0
  5  7  1  0  0  0
  5 35  1  0  0  0
  5 36  1  0  0  0
  6  9  1  0  0  0
  6 37  1  0  0  0
  6 38  1  0  0  0
  7  8  1  0  0  0
  7 39  1  0  0  0
  7 40  1  0  0  0
  8  9  1  0  0  0
  8 41  1  0  0  0
  8 42  1  0  0  0
  9 43  1  0  0  0
  9 44  1  0  0  0
 10 11  1  0  0  0
 10 45  1  0  0  0
 10 46  1  0  0  0
 11 12  1  0  0  0
 11 19  1  0  0  0
 11 47  1  0  0  0
 12 13  1  0  0  0
 12 48  1  0  0  0
 12 49  1  0  0  0
 13 14  1  0  0  0
 13 18  1  0  0  0
 13 50  1  0  0  0
 14 15  1  0  0  0
 14 51  1  0  0  0
 14 52  1  0  0  0
 15 16  1  0  0  0
 15 53  1  0  0  0
 15 54  1  0  0  0
 16 17  1  0  0  0
 16 55  1  0  0  0
 16 56  1  0  0  0
 17 18  1  0  0  0
 17 57  1  0  0  0
 17 58  1  0  0  0
 18 59  1  0  0  0
 18 60  1  0  0  0
 19 20  1  0  0  0
 19 61  1  0  0  0
 19 62  1  0  0  0
 20 21  1  0  0  0
 20 63  1  0  0  0
 20 64  1  0  0  0
 21 22  1  0  0  0
 21 65  1  0  0  0
 21 66  1  0  0  0
 22 23  1  0  0  0
 22 27  1  0  0  0
 22 67  1  0  0  0
 23 24  1  0  0  0
 23 68  1  0  0  0
 23 69  1  0  0  0
 24 25  1  0  0  0
 24 70  1  0  0  0
 24 71  1  0  0  0
 25 26  1  0  0  0
 25 72  1  0  0  0
 25 73  1  0  0  0
 26 27  1  0  0  0
 26 74  1  0  0  0
 26 75  1  0  0  0
 27 76  1  0  0  0
 27 77  1  0  0  0
M  END
