C:\Mis documentos\Gara\Polímeros (Tg)\Base de datos polímeros\087 trimer poly(vinyl acetal).hin
 OpenBabel04231222183D

 56 58  0  0  0  0  0  0  0  0999 V2000
   -4.9662   -1.8103   -0.7059 C   0  0  0  0  0
   -4.4715   -1.1135   -1.9595 C   0  0  0  0  0
   -3.9281   -2.0451   -2.8942 O   0  0  0  0  0
   -3.4996    0.0220   -1.6599 C   0  0  0  0  0
   -2.0357   -0.4049   -1.6413 C   0  0  0  0  0
   -1.7616   -1.4292   -2.5943 O   0  0  0  0  0
   -2.6457   -2.5391   -2.5475 C   0  0  0  0  0
   -1.5605   -0.7877   -0.2442 C   0  0  0  0  0
   -0.0638   -1.0792   -0.2269 C   0  0  0  0  0
    0.2644   -1.7795    0.9784 O   0  0  0  0  0
    0.7762    0.1823   -0.3850 C   0  0  0  0  0
    2.1346   -0.0053    0.2768 C   0  0  0  0  0
    2.0422   -0.5017    1.6159 O   0  0  0  0  0
    2.5647    3.6344    0.7802 O   0  0  0  0  0
    2.4677    2.3099    1.3100 C   0  0  0  0  0
    2.9518    1.2820    0.2912 C   0  0  0  0  0
    3.2005    2.2051    2.6432 C   0  0  0  0  0
    4.5523    2.8901    2.5700 C   0  0  0  0  0
    4.4444    4.1739    1.9611 O   0  0  0  0  0
    0.7501   -0.9413    2.0109 C   0  0  0  0  0
    3.8935    4.1188    0.6536 C   0  0  0  0  0
   -2.2153   -3.5163   -3.6290 C   0  0  0  0  0
    0.9122   -1.7805    3.2671 C   0  0  0  0  0
    3.8225    5.5371    0.1151 C   0  0  0  0  0
   -4.1186   -2.1440   -0.0620 H   0  0  0  0  0
   -5.6056   -1.1111   -0.1161 H   0  0  0  0  0
   -5.5712   -2.7060   -0.9863 H   0  0  0  0  0
   -5.3615   -0.7009   -2.5220 H   0  0  0  0  0
   -3.7690    0.4943   -0.6811 H   0  0  0  0  0
   -3.6194    0.8005   -2.4595 H   0  0  0  0  0
   -1.3962    0.4505   -2.0153 H   0  0  0  0  0
   -2.6545   -3.0062   -1.5237 H   0  0  0  0  0
   -1.7964    0.0475    0.4646 H   0  0  0  0  0
   -2.1004   -1.7007    0.1181 H   0  0  0  0  0
    0.1813   -1.8210   -1.0415 H   0  0  0  0  0
    0.2475    1.0612    0.0669 H   0  0  0  0  0
    0.9217    0.4005   -1.4738 H   0  0  0  0  0
    2.7094   -0.7928   -0.2946 H   0  0  0  0  0
    1.3588    2.1892    1.4790 H   0  0  0  0  0
    4.0211    1.0210    0.5050 H   0  0  0  0  0
    2.9038    1.7321   -0.7357 H   0  0  0  0  0
    3.3223    1.1260    2.9176 H   0  0  0  0  0
    2.5802    2.7039    3.4322 H   0  0  0  0  0
    5.2878    2.2653    1.9957 H   0  0  0  0  0
    4.9584    3.1067    3.5930 H   0  0  0  0  0
    0.0726   -0.0550    2.1683 H   0  0  0  0  0
    4.5027    3.4350   -0.0032 H   0  0  0  0  0
   -2.2135   -3.0119   -4.6239 H   0  0  0  0  0
   -1.1878   -3.8834   -3.4002 H   0  0  0  0  0
   -2.9302   -4.3714   -3.6514 H   0  0  0  0  0
    1.4970   -2.7028    3.0398 H   0  0  0  0  0
    1.4534   -1.1830    4.0374 H   0  0  0  0  0
   -0.0958   -2.0679    3.6464 H   0  0  0  0  0
    3.2062    6.1739    0.7925 H   0  0  0  0  0
    4.8541    5.9558    0.0552 H   0  0  0  0  0
    3.3577    5.5208   -0.8979 H   0  0  0  0  0
  1  2  1  0  0  0
  1 25  1  0  0  0
  1 26  1  0  0  0
  1 27  1  0  0  0
  2  3  1  0  0  0
  2  4  1  0  0  0
  2 28  1  0  0  0
  3  7  1  0  0  0
  4  5  1  0  0  0
  4 29  1  0  0  0
  4 30  1  0  0  0
  5  6  1  0  0  0
  5  8  1  0  0  0
  5 31  1  0  0  0
  6  7  1  0  0  0
  7 22  1  0  0  0
  7 32  1  0  0  0
  8  9  1  0  0  0
  8 33  1  0  0  0
  8 34  1  0  0  0
  9 10  1  0  0  0
  9 11  1  0  0  0
  9 35  1  0  0  0
 10 20  1  0  0  0
 11 12  1  0  0  0
 11 36  1  0  0  0
 11 37  1  0  0  0
 12 13  1  0  0  0
 12 16  1  0  0  0
 12 38  1  0  0  0
 13 20  1  0  0  0
 14 15  1  0  0  0
 14 21  1  0  0  0
 15 16  1  0  0  0
 15 17  1  0  0  0
 15 39  1  0  0  0
 16 40  1  0  0  0
 16 41  1  0  0  0
 17 18  1  0  0  0
 17 42  1  0  0  0
 17 43  1  0  0  0
 18 19  1  0  0  0
 18 44  1  0  0  0
 18 45  1  0  0  0
 19 21  1  0  0  0
 20 23  1  0  0  0
 20 46  1  0  0  0
 21 24  1  0  0  0
 21 47  1  0  0  0
 22 48  1  0  0  0
 22 49  1  0  0  0
 22 50  1  0  0  0
 23 51  1  0  0  0
 23 52  1  0  0  0
 23 53  1  0  0  0
 24 54  1  0  0  0
 24 55  1  0  0  0
 24 56  1  0  0  0
M  END
