C:\Mis documentos\Gara\Polímeros (Tg)\Base de datos polímeros\088 trimer poly(vinyl formal).hin
 OpenBabel04231222193D

 47 49  0  0  0  0  0  0  0  0999 V2000
   -5.0681   -1.4501   -0.0069 C   0  0  0  0  0
   -4.6857   -1.0637   -1.4228 C   0  0  0  0  0
   -4.2620   -2.2017   -2.1757 O   0  0  0  0  0
   -3.6551    0.0589   -1.4715 C   0  0  0  0  0
   -2.2086   -0.4250   -1.4813 C   0  0  0  0  0
   -2.0564   -1.6457   -2.2055 O   0  0  0  0  0
   -2.9701   -2.6617   -1.8532 C   0  0  0  0  0
   -1.6205   -0.5257   -0.0780 C   0  0  0  0  0
   -0.1255   -0.8108   -0.1297 C   0  0  0  0  0
    0.2118   -1.3806    1.1461 O   0  0  0  0  0
    0.7094    0.4472   -0.3537 C   0  0  0  0  0
    2.1789    0.1032   -0.1414 C   0  0  0  0  0
    2.3366   -0.5328    1.1374 O   0  0  0  0  0
    3.4500    3.6667    0.0993 O   0  0  0  0  0
    2.6845    2.5413    0.5451 C   0  0  0  0  0
    3.1363    1.2831   -0.1879 C   0  0  0  0  0
    2.7449    2.4091    2.0619 C   0  0  0  0  0
    4.1586    2.6189    2.5720 C   0  0  0  0  0
    4.7553    3.7682    1.9740 O   0  0  0  0  0
    1.5775   -1.7190    1.2514 C   0  0  0  0  0
    4.7815    3.7013    0.5649 C   0  0  0  0  0
   -4.1680   -1.6892    0.6075 H   0  0  0  0  0
   -5.6147   -0.6063    0.4776 H   0  0  0  0  0
   -5.7316   -2.3480   -0.0269 H   0  0  0  0  0
   -5.6152   -0.7392   -1.9782 H   0  0  0  0  0
   -3.8171    0.7500   -0.6055 H   0  0  0  0  0
   -3.8261    0.6449   -2.4135 H   0  0  0  0  0
   -1.5820    0.2961   -2.0868 H   0  0  0  0  0
   -2.7615   -3.5167   -2.5515 H   0  0  0  0  0
   -2.8839   -2.9479   -0.7723 H   0  0  0  0  0
   -1.8053    0.4328    0.4713 H   0  0  0  0  0
   -2.1195   -1.3477    0.4988 H   0  0  0  0  0
    0.0922   -1.5703   -0.9339 H   0  0  0  0  0
    0.3907    1.2269    0.3852 H   0  0  0  0  0
    0.5508    0.8422   -1.3869 H   0  0  0  0  0
    2.4978   -0.6357   -0.9361 H   0  0  0  0  0
    1.6407    2.8230    0.2223 H   0  0  0  0  0
    4.1197    0.9459    0.2365 H   0  0  0  0  0
    3.2964    1.5500   -1.2668 H   0  0  0  0  0
    2.3751    1.3961    2.3666 H   0  0  0  0  0
    2.0736    3.1841    2.5147 H   0  0  0  0  0
    4.7964    1.7184    2.3645 H   0  0  0  0  0
    4.1680    2.8461    3.6702 H   0  0  0  0  0
    1.8757   -2.4715    0.4728 H   0  0  0  0  0
    1.7287   -2.0867    2.3011 H   0  0  0  0  0
    5.2062    4.6790    0.2119 H   0  0  0  0  0
    5.3676    2.8136    0.2063 H   0  0  0  0  0
  1  2  1  0  0  0
  1 22  1  0  0  0
  1 23  1  0  0  0
  1 24  1  0  0  0
  2  3  1  0  0  0
  2  4  1  0  0  0
  2 25  1  0  0  0
  3  7  1  0  0  0
  4  5  1  0  0  0
  4 26  1  0  0  0
  4 27  1  0  0  0
  5  6  1  0  0  0
  5  8  1  0  0  0
  5 28  1  0  0  0
  6  7  1  0  0  0
  7 29  1  0  0  0
  7 30  1  0  0  0
  8  9  1  0  0  0
  8 31  1  0  0  0
  8 32  1  0  0  0
  9 10  1  0  0  0
  9 11  1  0  0  0
  9 33  1  0  0  0
 10 20  1  0  0  0
 11 12  1  0  0  0
 11 34  1  0  0  0
 11 35  1  0  0  0
 12 13  1  0  0  0
 12 16  1  0  0  0
 12 36  1  0  0  0
 13 20  1  0  0  0
 14 15  1  0  0  0
 14 21  1  0  0  0
 15 16  1  0  0  0
 15 17  1  0  0  0
 15 37  1  0  0  0
 16 38  1  0  0  0
 16 39  1  0  0  0
 17 18  1  0  0  0
 17 40  1  0  0  0
 17 41  1  0  0  0
 18 19  1  0  0  0
 18 42  1  0  0  0
 18 43  1  0  0  0
 19 21  1  0  0  0
 20 44  1  0  0  0
 20 45  1  0  0  0
 21 46  1  0  0  0
 21 47  1  0  0  0
M  END
